Test_Network/condensed/network_18/Feeder_1/LineCode.txt
New LineCode..007_PSC nphases=3 R1=3.97 X1=0.099 R0=3.97 X0=0.099 C1=0 C0=0 Units=km Normamps=55
New LineCode..0225_PSC nphases=3 R1=1.257 X1=0.085 R0=1.257 X0=0.085 C1=0 C0=0 Units=km 
New LineCode..04_PSC nphases=3 R1=0.708 X1=0.079 R0=0.708 X0=0.079 C1=0 C0=0 Units=km 
New LineCode.3c_185_SAC_ASN nphases=3 R1=0.166 X1=0.069 R0=0.625 X0=0.088 C1=0 C0=0 Units=km Normamps=305
New LineCode.4_PSC nphases=3 R1=4.61 X1=0.093 R0=4.8 X0=0.093 C1=0 C0=0 Units=km Normamps=55
New LineCode.4_XSC nphases=3 R1=4.61 X1=0.091 R0=4.8 X0=0.091 C1=0 C0=0 Units=km Normamps=55
New LineCode.4_XSC nphases=3 R1=4.61 X1=0.091 R0=4.8 X0=0.091 C1=0 C0=0 Units=km Normamps=55
New LineCode.4c_120_SAC nphases=3 R1=0.255 X1=0.068 R0=0.884 X0=0.079 C1=0 C0=0 Units=km Normamps=230
New LineCode.4c_185_SAC nphases=3 R1=0.166 X1=0.073 R0=0.413 X0=0.093 C1=0 C0=0 Units=km 
New LineCode.4c_300_SAC nphases=3 R1=0.102 X1=0.073 R0=0.291 X0=0.087 C1=0 C0=0 Units=km Normamps=430
