Test_Network/condensed/network_18/Feeder_1/LinesUnq.txt
New Line.LINE181_1 Bus1=181_1 Bus2=181_2 phases=3 Linecode=4c_300_SAC Length=0.36423 Units=m
New Line.LINE181_2 Bus1=181_2 Bus2=181_3 phases=3 Linecode=4c_300_SAC Length=0.13102 Units=m
New Line.LINE181_3 Bus1=181_3 Bus2=181_4 phases=3 Linecode=4c_300_SAC Length=0.073824 Units=m
New Line.LINE181_4 Bus1=181_4 Bus2=181_5 phases=3 Linecode=4c_300_SAC Length=0.069377 Units=m
New Line.LINE181_5 Bus1=181_5 Bus2=181_6 phases=3 Linecode=4c_300_SAC Length=0.075006 Units=m
New Line.LINE181_6 Bus1=181_6 Bus2=181_7 phases=3 Linecode=4c_300_SAC Length=0.057272 Units=m
New Line.LINE181_7 Bus1=181_7 Bus2=181_8 phases=3 Linecode=4c_300_SAC Length=0.056079 Units=m
New Line.LINE181_8 Bus1=181_8 Bus2=181_9 phases=3 Linecode=4c_300_SAC Length=0.13553 Units=m
New Line.LINE181_9 Bus1=181_9 Bus2=181_10 phases=3 Linecode=4c_300_SAC Length=0.055947 Units=m
New Line.LINE181_10 Bus1=181_10 Bus2=181_11 phases=3 Linecode=4c_300_SAC Length=0.72857 Units=m
New Line.LINE181_11 Bus1=181_11 Bus2=181_12 phases=3 Linecode=4c_300_SAC Length=0.27177 Units=m
New Line.LINE181_12 Bus1=181_12 Bus2=181_13 phases=3 Linecode=4c_300_SAC Length=0.15219 Units=m
New Line.LINE181_13 Bus1=181_13 Bus2=181_14 phases=3 Linecode=4c_300_SAC Length=0.058249 Units=m
New Line.LINE181_14 Bus1=181_14 Bus2=181_15 phases=3 Linecode=4c_300_SAC Length=0.24112 Units=m
New Line.LINE181_15 Bus1=181_15 Bus2=181_16 phases=3 Linecode=4c_300_SAC Length=0.39938 Units=m
New Line.LINE181_16 Bus1=181_16 Bus2=181_17 phases=3 Linecode=4c_300_SAC Length=0.50678 Units=m
New Line.LINE181_17 Bus1=181_17 Bus2=181_18 phases=3 Linecode=4c_300_SAC Length=0.92779 Units=m
New Line.LINE181_18 Bus1=181_18 Bus2=181_19 phases=3 Linecode=4c_300_SAC Length=0.63474 Units=m
New Line.LINE181_19 Bus1=181_19 Bus2=181_20 phases=3 Linecode=4c_300_SAC Length=5.2175 Units=m
New Line.LINE181_20 Bus1=181_20 Bus2=181_21 phases=3 Linecode=4c_300_SAC Length=3.2728 Units=m
New Line.LINE181_21 Bus1=181_21 Bus2=181_22 phases=3 Linecode=4c_300_SAC Length=4.1672 Units=m
New Line.LINE181_22 Bus1=181_22 Bus2=181_23 phases=3 Linecode=4c_300_SAC Length=1.2838 Units=m
New Line.LINE181_23 Bus1=181_23 Bus2=181_24 phases=3 Linecode=4c_300_SAC Length=0.30869 Units=m
New Line.LINE181_24 Bus1=181_24 Bus2=181_25 phases=3 Linecode=4c_300_SAC Length=0.42636 Units=m
New Line.LINE181_25 Bus1=181_25 Bus2=181_26 phases=3 Linecode=4c_300_SAC Length=0.28724 Units=m
New Line.LINE181_26 Bus1=181_26 Bus2=181_27 phases=3 Linecode=4c_300_SAC Length=0.32424 Units=m
New Line.LINE181_27 Bus1=181_27 Bus2=181_28 phases=3 Linecode=4c_300_SAC Length=0.32118 Units=m
New Line.LINE181_28 Bus1=181_28 Bus2=181_29 phases=3 Linecode=4c_300_SAC Length=0.66615 Units=m
New Line.LINE181_29 Bus1=181_29 Bus2=181_30 phases=3 Linecode=4c_300_SAC Length=10.6191 Units=m
New Line.LINE181_30 Bus1=181_30 Bus2=181_31 phases=3 Linecode=4c_300_SAC Length=15.28 Units=m
New Line.LINE181_31 Bus1=181_31 Bus2=181_32 phases=3 Linecode=4c_300_SAC Length=0.90384 Units=m
New Line.LINE181_32 Bus1=181_32 Bus2=181_33 phases=3 Linecode=4c_300_SAC Length=3.7601 Units=m
New Line.LINE181_33 Bus1=181_33 Bus2=181_34 phases=3 Linecode=4c_300_SAC Length=6.1027 Units=m
New Line.LINE181_34 Bus1=181_34 Bus2=181_35 phases=3 Linecode=4c_300_SAC Length=1.6579 Units=m
New Line.LINE181_35 Bus1=181_35 Bus2=181_36 phases=3 Linecode=4c_300_SAC Length=3.3937 Units=m
New Line.LINE181_36 Bus1=181_36 Bus2=181_37 phases=3 Linecode=4c_300_SAC Length=15.792 Units=m
New Line.LINE181_37 Bus1=181_37 Bus2=181_38 phases=3 Linecode=4c_300_SAC Length=10.7954 Units=m
New Line.LINE181_38 Bus1=181_38 Bus2=181_39 phases=3 Linecode=4c_300_SAC Length=0.17648 Units=m
New Line.LINE181_39 Bus1=181_39 Bus2=181_40 phases=3 Linecode=4c_300_SAC Length=0.13686 Units=m
New Line.LINE181_40 Bus1=181_40 Bus2=181_41 phases=3 Linecode=4c_300_SAC Length=0.18885 Units=m
New Line.LINE181_41 Bus1=181_41 Bus2=181_42 phases=3 Linecode=4c_300_SAC Length=0.1929 Units=m
New Line.LINE181_42 Bus1=181_42 Bus2=181_43 phases=3 Linecode=4c_300_SAC Length=0.19284 Units=m
New Line.LINE181_43 Bus1=181_43 Bus2=181_44 phases=3 Linecode=4c_300_SAC Length=0.77897 Units=m
New Line.LINE181_44 Bus1=181_44 Bus2=181_45 phases=3 Linecode=4c_300_SAC Length=6.32 Units=m
New Line.LINE181_45 Bus1=181_45 Bus2=181_46 phases=3 Linecode=4c_300_SAC Length=0.75004 Units=m
New Line.LINE181_46 Bus1=181_46 Bus2=181_47 phases=3 Linecode=4c_300_SAC Length=0.44903 Units=m
New Line.LINE181_47 Bus1=181_47 Bus2=181_48 phases=3 Linecode=4c_300_SAC Length=0.49123 Units=m
New Line.LINE181_48 Bus1=181_48 Bus2=181_49 phases=3 Linecode=4c_300_SAC Length=5.1517 Units=m
New Line.LINE181_49 Bus1=181_49 Bus2=181_50 phases=3 Linecode=4c_300_SAC Length=7.0535 Units=m
New Line.LINE181_50 Bus1=181_50 Bus2=181_51 phases=3 Linecode=4c_300_SAC Length=3.0265 Units=m
New Line.LINE181_51 Bus1=181_51 Bus2=181_52 phases=3 Linecode=4c_300_SAC Length=1.991 Units=m
New Line.LINE181_52 Bus1=181_52 Bus2=181_53 phases=3 Linecode=4c_300_SAC Length=0.088645 Units=m
New Line.LINE181_53 Bus1=181_53 Bus2=181_54 phases=3 Linecode=4c_300_SAC Length=0.11721 Units=m
New Line.LINE181_54 Bus1=181_54 Bus2=181_55 phases=3 Linecode=4c_300_SAC Length=0.11297 Units=m
New Line.LINE181_55 Bus1=181_55 Bus2=181_56 phases=3 Linecode=4c_300_SAC Length=0.1442 Units=m
New Line.LINE181_56 Bus1=181_56 Bus2=181_57 phases=3 Linecode=4c_300_SAC Length=0.089358 Units=m
New Line.LINE181_57 Bus1=181_57 Bus2=181_58 phases=3 Linecode=4c_300_SAC Length=0.092097 Units=m
New Line.LINE181_58 Bus1=181_58 Bus2=181_59 phases=3 Linecode=4c_300_SAC Length=0.10132 Units=m
New Line.LINE181_59 Bus1=181_59 Bus2=181_60 phases=3 Linecode=4c_300_SAC Length=0.12741 Units=m
New Line.LINE181_60 Bus1=181_60 Bus2=181_61 phases=3 Linecode=4c_300_SAC Length=0.72956 Units=m
New Line.LINE181_61 Bus1=181_61 Bus2=181_62 phases=3 Linecode=4c_300_SAC Length=10.7325 Units=m
New Line.LINE181_62 Bus1=181_62 Bus2=181_63 phases=3 Linecode=4c_300_SAC Length=0.48691 Units=m
New Line.LINE181_63 Bus1=181_63 Bus2=181_64 phases=3 Linecode=4c_300_SAC Length=0.25516 Units=m
New Line.LINE181_64 Bus1=181_64 Bus2=181_65 phases=3 Linecode=4c_300_SAC Length=0.31995 Units=m
New Line.LINE181_65 Bus1=181_65 Bus2=181_66 phases=3 Linecode=4c_300_SAC Length=0.6745 Units=m
New Line.LINE181_66 Bus1=181_66 Bus2=181_67 phases=3 Linecode=4c_300_SAC Length=5.9216 Units=m
New Line.LINE181_67 Bus1=181_67 Bus2=181_68 phases=3 Linecode=4c_300_SAC Length=4.0796 Units=m
New Line.LINE181_68 Bus1=181_68 Bus2=181_69 phases=3 Linecode=4c_300_SAC Length=0.76688 Units=m
New Line.LINE181_69 Bus1=181_69 Bus2=181_70 phases=3 Linecode=4c_300_SAC Length=0.14359 Units=m
New Line.LINE181_70 Bus1=181_70 Bus2=181_71 phases=3 Linecode=4c_300_SAC Length=0.10784 Units=m
New Line.LINE181_71 Bus1=181_71 Bus2=181_72 phases=3 Linecode=4c_300_SAC Length=0.10757 Units=m
New Line.LINE181_72 Bus1=181_72 Bus2=181_73 phases=3 Linecode=4c_300_SAC Length=0.13376 Units=m
New Line.LINE181_73 Bus1=181_73 Bus2=181_74 phases=3 Linecode=4c_300_SAC Length=0.17975 Units=m
New Line.LINE181_74 Bus1=181_74 Bus2=181_75 phases=3 Linecode=4c_300_SAC Length=8.084 Units=m
New Line.LINE181_75 Bus1=181_75 Bus2=181_76 phases=3 Linecode=4c_300_SAC Length=2.3427 Units=m
New Line.LINE181_76 Bus1=181_75 Bus2=181_77 phases=3 Linecode=4c_120_SAC Length=0.67942 Units=m
New Line.LINE181_77 Bus1=181_76 Bus2=181_78 phases=3 Linecode=4c_300_SAC Length=7.1035 Units=m
New Line.LINE181_78 Bus1=181_77 Bus2=181_79 phases=3 Linecode=4c_120_SAC Length=0.58755 Units=m
New Line.LINE181_79 Bus1=181_78 Bus2=181_80 phases=3 Linecode=4c_300_SAC Length=9.8354 Units=m
New Line.LINE181_80 Bus1=181_79 Bus2=181_81 phases=3 Linecode=4c_120_SAC Length=0.28434 Units=m
New Line.LINE181_81 Bus1=181_80 Bus2=181_82 phases=3 Linecode=.0225_PSC Length=0.58462 Units=m
New Line.LINE181_82 Bus1=181_80 Bus2=181_83 phases=3 Linecode=.0225_PSC Length=0.38792 Units=m
New Line.LINE181_83 Bus1=181_80 Bus2=181_84 phases=3 Linecode=4c_300_SAC Length=21.2144 Units=m
New Line.LINE181_84 Bus1=181_81 Bus2=181_85 phases=3 Linecode=4c_120_SAC Length=0.22546 Units=m
New Line.LINE181_85 Bus1=181_82 Bus2=181_86 phases=3 Linecode=.0225_PSC Length=0.1986 Units=m
New Line.LINE181_86 Bus1=181_83 Bus2=181_87 phases=3 Linecode=.0225_PSC Length=0.2 Units=m
New Line.LINE181_87 Bus1=181_84 Bus2=181_88 phases=3 Linecode=4c_300_SAC Length=9.386 Units=m
New Line.LINE181_88 Bus1=181_84 Bus2=181_89 phases=3 Linecode=4_XSC Length=0.2008 Units=m
New Line.LINE181_89 Bus1=181_85 Bus2=181_90 phases=3 Linecode=4c_120_SAC Length=0.18085 Units=m
New Line.LINE181_90 Bus1=181_86 Bus2=181_91 phases=3 Linecode=.0225_PSC Length=0.16147 Units=m
New Line.LINE181_91 Bus1=181_87 Bus2=181_92 phases=3 Linecode=.0225_PSC Length=0.42814 Units=m
New Line.LINE181_92 Bus1=181_88 Bus2=181_93 phases=3 Linecode=4c_300_SAC Length=15.0674 Units=m
New Line.LINE181_93 Bus1=181_89 Bus2=181_94 phases=3 Linecode=4_XSC Length=0.30611 Units=m
New Line.LINE181_94 Bus1=181_90 Bus2=181_95 phases=3 Linecode=4c_120_SAC Length=0.10704 Units=m
New Line.LINE181_95 Bus1=181_91 Bus2=181_96 phases=3 Linecode=.0225_PSC Length=0.12323 Units=m
New Line.LINE181_96 Bus1=181_92 Bus2=181_97 phases=3 Linecode=.0225_PSC Length=0.84946 Units=m
New Line.LINE181_97 Bus1=181_93 Bus2=181_98 phases=3 Linecode=.0225_PSC Length=0.85672 Units=m
New Line.LINE181_98 Bus1=181_93 Bus2=181_99 phases=3 Linecode=.0225_PSC Length=0.57458 Units=m
New Line.LINE181_99 Bus1=181_93 Bus2=181_100 phases=3 Linecode=4c_300_SAC Length=0.55362 Units=m
New Line.LINE181_100 Bus1=181_94 Bus2=181_101 phases=3 Linecode=4_XSC Length=0.20197 Units=m
New Line.LINE181_101 Bus1=181_95 Bus2=181_102 phases=3 Linecode=4c_120_SAC Length=0.088006 Units=m
New Line.LINE181_102 Bus1=181_96 Bus2=181_103 phases=3 Linecode=.0225_PSC Length=0.114 Units=m
New Line.LINE181_103 Bus1=181_97 Bus2=181_104 phases=3 Linecode=.0225_PSC Length=8.9618 Units=m
New Line.LINE181_104 Bus1=181_98 Bus2=181_105 phases=3 Linecode=.0225_PSC Length=0.47088 Units=m
New Line.LINE181_105 Bus1=181_99 Bus2=181_106 phases=3 Linecode=.0225_PSC Length=2.4236 Units=m
New Line.LINE181_106 Bus1=181_100 Bus2=181_107 phases=3 Linecode=4c_300_SAC Length=0.24502 Units=m
New Line.LINE181_107 Bus1=181_101 Bus2=181_108 phases=3 Linecode=4_XSC Length=0.08363 Units=m
New Line.LINE181_108 Bus1=181_102 Bus2=181_109 phases=3 Linecode=4c_120_SAC Length=0.12125 Units=m
New Line.LINE181_109 Bus1=181_103 Bus2=181_110 phases=3 Linecode=.0225_PSC Length=6.8443 Units=m
New Line.LINE181_110 Bus1=181_104 Bus2=181_111 phases=3 Linecode=.0225_PSC Length=2.8176 Units=m
New Line.LINE181_111 Bus1=181_104 Bus2=181_112 phases=3 Linecode=4_XSC Length=0.17198 Units=m
New Line.LINE181_112 Bus1=181_105 Bus2=181_113 phases=3 Linecode=.0225_PSC Length=0.70589 Units=m
New Line.LINE181_113 Bus1=181_106 Bus2=181_114 phases=3 Linecode=.0225_PSC Length=0.27007 Units=m
New Line.LINE181_114 Bus1=181_107 Bus2=181_115 phases=3 Linecode=4c_300_SAC Length=2.6056 Units=m
New Line.LINE181_115 Bus1=181_108 Bus2=181_116 phases=3 Linecode=4_XSC Length=0.11098 Units=m
New Line.LINE181_116 Bus1=181_109 Bus2=181_117 phases=3 Linecode=4c_120_SAC Length=0.10377 Units=m
New Line.LINE181_117 Bus1=181_110 Bus2=181_118 phases=3 Linecode=.0225_PSC Length=0.76472 Units=m
New Line.LINE181_118 Bus1=181_110 Bus2=181_119 phases=3 Linecode=.04_PSC Length=3.901 Units=m
New Line.LINE181_119 Bus1=181_111 Bus2=181_120 phases=3 Linecode=.0225_PSC Length=0.50144 Units=m
New Line.LINE181_120 Bus1=181_112 Bus2=181_121 phases=3 Linecode=4_XSC Length=0.17601 Units=m
New Line.LINE181_121 Bus1=181_113 Bus2=181_122 phases=3 Linecode=.0225_PSC Length=11.5319 Units=m
New Line.LINE181_122 Bus1=181_114 Bus2=181_123 phases=3 Linecode=.0225_PSC Length=0.11925 Units=m
New Line.LINE181_123 Bus1=181_115 Bus2=181_124 phases=3 Linecode=4c_300_SAC Length=6.714 Units=m
New Line.LINE181_124 Bus1=181_115 Bus2=181_125 phases=3 Linecode=3c_185_SAC_ASN Length=1.3774 Units=m
New Line.LINE181_125 Bus1=181_116 Bus2=181_126 phases=3 Linecode=4_XSC Length=0.10317 Units=m
New Line.LINE181_126 Bus1=181_117 Bus2=181_127 phases=3 Linecode=4c_120_SAC Length=0.1216 Units=m
New Line.LINE181_127 Bus1=181_118 Bus2=181_128 phases=3 Linecode=.0225_PSC Length=0.070936 Units=m
New Line.LINE181_128 Bus1=181_120 Bus2=181_129 phases=3 Linecode=.0225_PSC Length=0.19418 Units=m
New Line.LINE181_129 Bus1=181_121 Bus2=181_130 phases=3 Linecode=4_XSC Length=0.2706 Units=m
New Line.LINE181_130 Bus1=181_122 Bus2=181_131 phases=3 Linecode=.0225_PSC Length=0.50259 Units=m
New Line.LINE181_131 Bus1=181_123 Bus2=181_132 phases=3 Linecode=.0225_PSC Length=0.12609 Units=m
New Line.LINE181_132 Bus1=181_124 Bus2=181_133 phases=3 Linecode=4c_300_SAC Length=15.2358 Units=m
New Line.LINE181_133 Bus1=181_125 Bus2=181_134 phases=3 Linecode=3c_185_SAC_ASN Length=0.13324 Units=m
New Line.LINE181_134 Bus1=181_126 Bus2=181_135 phases=3 Linecode=4_XSC Length=0.1381 Units=m
New Line.LINE181_135 Bus1=181_127 Bus2=181_136 phases=3 Linecode=4c_120_SAC Length=6.2282 Units=m
New Line.LINE181_136 Bus1=181_128 Bus2=181_137 phases=3 Linecode=.0225_PSC Length=0.054082 Units=m
New Line.LINE181_137 Bus1=181_129 Bus2=181_138 phases=3 Linecode=.0225_PSC Length=0.12496 Units=m
New Line.LINE181_138 Bus1=181_130 Bus2=181_139 phases=3 Linecode=4_XSC Length=0.70355 Units=m
New Line.LINE181_139 Bus1=181_131 Bus2=181_140 phases=3 Linecode=.0225_PSC Length=0.18697 Units=m
New Line.LINE181_140 Bus1=181_132 Bus2=181_141 phases=3 Linecode=.0225_PSC Length=0.19961 Units=m
New Line.LINE181_141 Bus1=181_133 Bus2=181_142 phases=3 Linecode=4c_300_SAC Length=0.98962 Units=m
New Line.LINE181_142 Bus1=181_134 Bus2=181_143 phases=3 Linecode=3c_185_SAC_ASN Length=0.10841 Units=m
New Line.LINE181_143 Bus1=181_135 Bus2=181_144 phases=3 Linecode=4_XSC Length=0.11853 Units=m
New Line.LINE181_144 Bus1=181_136 Bus2=181_145 phases=3 Linecode=4c_120_SAC Length=0.23216 Units=m
New Line.LINE181_145 Bus1=181_137 Bus2=181_146 phases=3 Linecode=.0225_PSC Length=0.058942 Units=m
New Line.LINE181_146 Bus1=181_138 Bus2=181_147 phases=3 Linecode=.0225_PSC Length=0.14076 Units=m
New Line.LINE181_147 Bus1=181_139 Bus2=181_148 phases=3 Linecode=4_XSC Length=0.22525 Units=m
New Line.LINE181_148 Bus1=181_140 Bus2=181_149 phases=3 Linecode=.0225_PSC Length=0.16273 Units=m
New Line.LINE181_149 Bus1=181_141 Bus2=181_150 phases=3 Linecode=.0225_PSC Length=0.19803 Units=m
New Line.LINE181_150 Bus1=181_142 Bus2=181_151 phases=3 Linecode=4c_300_SAC Length=0.59241 Units=m
New Line.LINE181_151 Bus1=181_143 Bus2=181_152 phases=3 Linecode=3c_185_SAC_ASN Length=0.13265 Units=m
New Line.LINE181_152 Bus1=181_144 Bus2=181_153 phases=3 Linecode=4_XSC Length=0.10456 Units=m
New Line.LINE181_153 Bus1=181_145 Bus2=181_154 phases=3 Linecode=4c_120_SAC Length=0.23729 Units=m
New Line.LINE181_154 Bus1=181_146 Bus2=181_155 phases=3 Linecode=.0225_PSC Length=0.045178 Units=m
New Line.LINE181_155 Bus1=181_147 Bus2=181_156 phases=3 Linecode=.0225_PSC Length=0.11821 Units=m
New Line.LINE181_156 Bus1=181_148 Bus2=181_157 phases=3 Linecode=4_XSC Length=0.16903 Units=m
New Line.LINE181_157 Bus1=181_149 Bus2=181_158 phases=3 Linecode=.0225_PSC Length=0.129 Units=m
New Line.LINE181_158 Bus1=181_150 Bus2=181_159 phases=3 Linecode=.0225_PSC Length=0.090824 Units=m
New Line.LINE181_159 Bus1=181_151 Bus2=181_160 phases=3 Linecode=4c_300_SAC Length=8.6492 Units=m
New Line.LINE181_160 Bus1=181_151 Bus2=181_161 phases=3 Linecode=.0225_PSC Length=0.46944 Units=m
New Line.LINE181_161 Bus1=181_152 Bus2=181_162 phases=3 Linecode=3c_185_SAC_ASN Length=0.10885 Units=m
New Line.LINE181_162 Bus1=181_153 Bus2=181_163 phases=3 Linecode=4_XSC Length=0.39396 Units=m
New Line.LINE181_163 Bus1=181_154 Bus2=181_164 phases=3 Linecode=4c_120_SAC Length=0.22163 Units=m
New Line.LINE181_164 Bus1=181_155 Bus2=181_165 phases=3 Linecode=.0225_PSC Length=0.057139 Units=m
New Line.LINE181_165 Bus1=181_156 Bus2=181_166 phases=3 Linecode=.0225_PSC Length=0.12202 Units=m
New Line.LINE181_166 Bus1=181_157 Bus2=181_167 phases=3 Linecode=4_XSC Length=0.13926 Units=m
New Line.LINE181_167 Bus1=181_158 Bus2=181_168 phases=3 Linecode=.0225_PSC Length=0.13779 Units=m
New Line.LINE181_168 Bus1=181_159 Bus2=181_169 phases=3 Linecode=.0225_PSC Length=0.089677 Units=m
New Line.LINE181_169 Bus1=181_160 Bus2=181_170 phases=3 Linecode=4c_300_SAC Length=18.6566 Units=m
New Line.LINE181_170 Bus1=181_160 Bus2=181_171 phases=3 Linecode=.007_PSC Length=0.3908 Units=m
New Line.LINE181_171 Bus1=181_161 Bus2=181_172 phases=3 Linecode=.0225_PSC Length=0.17516 Units=m
New Line.LINE181_172 Bus1=181_162 Bus2=181_173 phases=3 Linecode=3c_185_SAC_ASN Length=0.11474 Units=m
New Line.LINE181_173 Bus1=181_163 Bus2=181_174 phases=3 Linecode=4_XSC Length=0.16064 Units=m
New Line.LINE181_174 Bus1=181_164 Bus2=181_175 phases=3 Linecode=4c_120_SAC Length=0.21891 Units=m
New Line.LINE181_175 Bus1=181_165 Bus2=181_176 phases=3 Linecode=.0225_PSC Length=0.29633 Units=m
New Line.LINE181_176 Bus1=181_166 Bus2=181_177 phases=3 Linecode=.0225_PSC Length=0.091662 Units=m
New Line.LINE181_177 Bus1=181_167 Bus2=181_178 phases=3 Linecode=4_XSC Length=0.098762 Units=m
New Line.LINE181_178 Bus1=181_168 Bus2=181_179 phases=3 Linecode=.0225_PSC Length=0.11718 Units=m
New Line.LINE181_179 Bus1=181_169 Bus2=181_180 phases=3 Linecode=.0225_PSC Length=0.46847 Units=m
New Line.LINE181_180 Bus1=181_170 Bus2=181_181 phases=3 Linecode=4c_185_SAC Length=1.9276 Units=m
New Line.LINE181_181 Bus1=181_171 Bus2=181_182 phases=3 Linecode=.007_PSC Length=0.077782 Units=m
New Line.LINE181_182 Bus1=181_172 Bus2=181_183 phases=3 Linecode=.0225_PSC Length=0.16253 Units=m
New Line.LINE181_183 Bus1=181_173 Bus2=181_184 phases=3 Linecode=3c_185_SAC_ASN Length=7.0039 Units=m
New Line.LINE181_184 Bus1=181_174 Bus2=181_185 phases=3 Linecode=4_XSC Length=0.27502 Units=m
New Line.LINE181_185 Bus1=181_175 Bus2=181_186 phases=3 Linecode=4c_120_SAC Length=0.23233 Units=m
New Line.LINE181_186 Bus1=181_176 Bus2=181_187 phases=3 Linecode=.0225_PSC Length=5.4532 Units=m
New Line.LINE181_187 Bus1=181_177 Bus2=181_188 phases=3 Linecode=.0225_PSC Length=0.5579 Units=m
New Line.LINE181_188 Bus1=181_178 Bus2=181_189 phases=3 Linecode=4_XSC Length=0.080957 Units=m
New Line.LINE181_189 Bus1=181_179 Bus2=181_190 phases=3 Linecode=.0225_PSC Length=0.15593 Units=m
New Line.LINE181_190 Bus1=181_180 Bus2=181_191 phases=3 Linecode=.0225_PSC Length=7.3515 Units=m
New Line.LINE181_191 Bus1=181_181 Bus2=181_192 phases=3 Linecode=4c_185_SAC Length=0.17725 Units=m
New Line.LINE181_192 Bus1=181_181 Bus2=181_193 phases=3 Linecode=4c_185_SAC Length=1.5189 Units=m
New Line.LINE181_193 Bus1=181_182 Bus2=181_194 phases=3 Linecode=.007_PSC Length=0.076243 Units=m
New Line.LINE181_194 Bus1=181_183 Bus2=181_195 phases=3 Linecode=.0225_PSC Length=0.11448 Units=m
New Line.LINE181_195 Bus1=181_184 Bus2=181_196 phases=3 Linecode=3c_185_SAC_ASN Length=0.14202 Units=m
New Line.LINE181_196 Bus1=181_186 Bus2=181_197 phases=3 Linecode=4c_120_SAC Length=0.26208 Units=m
New Line.LINE181_197 Bus1=181_187 Bus2=181_198 phases=3 Linecode=.0225_PSC Length=0.41755 Units=m
New Line.LINE181_198 Bus1=181_188 Bus2=181_199 phases=3 Linecode=.0225_PSC Length=6.7824 Units=m
New Line.LINE181_199 Bus1=181_189 Bus2=181_200 phases=3 Linecode=4_XSC Length=0.14544 Units=m
New Line.LINE181_200 Bus1=181_190 Bus2=181_201 phases=3 Linecode=.0225_PSC Length=0.58988 Units=m
...
