Test_Network/condensed/network_18/Feeder_1/LoadsCopyUnq.txt
New Load.LOAD181_1 Phases=1 Bus1=181_119.2 kV=0.23 kW=1 PF=0.95
New Load.LOAD181_2 Phases=1 Bus1=181_203.3 kV=0.23 kW=1 PF=0.95
New Load.LOAD181_3 Phases=1 Bus1=181_214.3 kV=0.23 kW=1 PF=0.95
New Load.LOAD181_4 Phases=1 Bus1=181_230.1 kV=0.23 kW=1 PF=0.95
New Load.LOAD181_5 Phases=1 Bus1=181_270.2 kV=0.23 kW=1 PF=0.95
New Load.LOAD181_6 Phases=1 Bus1=181_315.2 kV=0.23 kW=1 PF=0.95
New Load.LOAD181_7 Phases=1 Bus1=181_378.2 kV=0.23 kW=1 PF=0.95
New Load.LOAD181_8 Phases=1 Bus1=181_401.3 kV=0.23 kW=1 PF=0.95
New Load.LOAD181_9 Phases=1 Bus1=181_415.1 kV=0.23 kW=1 PF=0.95
New Load.LOAD181_10 Phases=1 Bus1=181_450.3 kV=0.23 kW=1 PF=0.95
New Load.LOAD181_11 Phases=1 Bus1=181_457.2 kV=0.23 kW=1 PF=0.95
New Load.LOAD181_12 Phases=1 Bus1=181_491.1 kV=0.23 kW=1 PF=0.95
New Load.LOAD181_13 Phases=1 Bus1=181_526.1 kV=0.23 kW=1 PF=0.95
New Load.LOAD181_14 Phases=1 Bus1=181_591.3 kV=0.23 kW=1 PF=0.95
New Load.LOAD181_15 Phases=1 Bus1=181_682.3 kV=0.23 kW=1 PF=0.95
New Load.LOAD181_16 Phases=1 Bus1=181_710.2 kV=0.23 kW=1 PF=0.95
New Load.LOAD181_17 Phases=1 Bus1=181_799.3 kV=0.23 kW=1 PF=0.95
New Load.LOAD181_18 Phases=1 Bus1=181_819.1 kV=0.23 kW=1 PF=0.95
New Load.LOAD181_19 Phases=1 Bus1=181_821.2 kV=0.23 kW=1 PF=0.95
New Load.LOAD181_20 Phases=1 Bus1=181_884.1 kV=0.23 kW=1 PF=0.95
New Load.LOAD181_21 Phases=1 Bus1=181_896.3 kV=0.23 kW=1 PF=0.95
New Load.LOAD181_22 Phases=1 Bus1=181_918.3 kV=0.23 kW=1 PF=0.95
New Load.LOAD181_23 Phases=1 Bus1=181_954.1 kV=0.23 kW=1 PF=0.95
New Load.LOAD181_24 Phases=1 Bus1=181_960.1 kV=0.23 kW=1 PF=0.95
New Load.LOAD181_25 Phases=1 Bus1=181_966.2 kV=0.23 kW=1 PF=0.95
New Load.LOAD181_26 Phases=1 Bus1=181_982.3 kV=0.23 kW=1 PF=0.95
New Load.LOAD181_27 Phases=1 Bus1=181_1000.3 kV=0.23 kW=1 PF=0.95
New Load.LOAD181_28 Phases=1 Bus1=181_1058.3 kV=0.23 kW=1 PF=0.95
New Load.LOAD181_29 Phases=1 Bus1=181_1089.2 kV=0.23 kW=1 PF=0.95
New Load.LOAD181_30 Phases=1 Bus1=181_1097.2 kV=0.23 kW=1 PF=0.95
New Load.LOAD181_31 Phases=1 Bus1=181_1099.1 kV=0.23 kW=1 PF=0.95
New Load.LOAD181_32 Phases=1 Bus1=181_1105.3 kV=0.23 kW=1 PF=0.95
New Load.LOAD181_33 Phases=1 Bus1=181_1133.1 kV=0.23 kW=1 PF=0.95
New Load.LOAD181_34 Phases=1 Bus1=181_1154.3 kV=0.23 kW=1 PF=0.95
New Load.LOAD181_35 Phases=1 Bus1=181_1174.3 kV=0.23 kW=1 PF=0.95
New Load.LOAD181_36 Phases=1 Bus1=181_1187.2 kV=0.23 kW=1 PF=0.95
New Load.LOAD181_37 Phases=1 Bus1=181_1229.1 kV=0.23 kW=1 PF=0.95
New Load.LOAD181_38 Phases=1 Bus1=181_1257.3 kV=0.23 kW=1 PF=0.95
New Load.LOAD181_39 Phases=1 Bus1=181_1267.2 kV=0.23 kW=1 PF=0.95
New Load.LOAD181_40 Phases=1 Bus1=181_1300.3 kV=0.23 kW=1 PF=0.95
New Load.LOAD181_41 Phases=1 Bus1=181_1307.3 kV=0.23 kW=1 PF=0.95
New Load.LOAD181_42 Phases=1 Bus1=181_1308.1 kV=0.23 kW=1 PF=0.95
New Load.LOAD181_43 Phases=1 Bus1=181_1311.1 kV=0.23 kW=1 PF=0.95
New Load.LOAD181_44 Phases=1 Bus1=181_1314.2 kV=0.23 kW=1 PF=0.95
New Load.LOAD181_45 Phases=1 Bus1=181_1315.3 kV=0.23 kW=1 PF=0.95
New Load.LOAD181_46 Phases=1 Bus1=181_1320.1 kV=0.23 kW=1 PF=0.95
New Load.LOAD181_47 Phases=1 Bus1=181_1326.2 kV=0.23 kW=1 PF=0.95
New Load.LOAD181_48 Phases=1 Bus1=181_1327.1 kV=0.23 kW=1 PF=0.95
New Load.LOAD181_49 Phases=1 Bus1=181_1329.2 kV=0.23 kW=1 PF=0.95
New Load.LOAD181_50 Phases=1 Bus1=181_1346.3 kV=0.23 kW=1 PF=0.95
New Load.LOAD181_51 Phases=1 Bus1=181_1357.2 kV=0.23 kW=1 PF=0.95
New Load.LOAD181_52 Phases=1 Bus1=181_1391.2 kV=0.23 kW=1 PF=0.95
New Load.LOAD181_53 Phases=1 Bus1=181_1394.1 kV=0.23 kW=1 PF=0.95
New Load.LOAD181_54 Phases=1 Bus1=181_1401.3 kV=0.23 kW=1 PF=0.95
New Load.LOAD181_55 Phases=1 Bus1=181_1407.3 kV=0.23 kW=1 PF=0.95
New Load.LOAD181_56 Phases=1 Bus1=181_1408.2 kV=0.23 kW=1 PF=0.95
