Test_Network/condensed/network_18/Feeder_2/LinesUnq.txt
New Line.LINE182_1 Bus1=182_1 Bus2=182_2 phases=3 Linecode=4c_.2 Length=0.25591 Units=m
New Line.LINE182_2 Bus1=182_2 Bus2=182_3 phases=3 Linecode=4c_.2 Length=0.060441 Units=m
New Line.LINE182_3 Bus1=182_3 Bus2=182_4 phases=3 Linecode=4c_.2 Length=0.052631 Units=m
New Line.LINE182_4 Bus1=182_4 Bus2=182_5 phases=3 Linecode=4c_.2 Length=0.06127 Units=m
New Line.LINE182_5 Bus1=182_5 Bus2=182_6 phases=3 Linecode=4c_.2 Length=0.070036 Units=m
New Line.LINE182_6 Bus1=182_6 Bus2=182_7 phases=3 Linecode=4c_.2 Length=0.069354 Units=m
New Line.LINE182_7 Bus1=182_7 Bus2=182_8 phases=3 Linecode=4c_.2 Length=0.061684 Units=m
New Line.LINE182_8 Bus1=182_8 Bus2=182_9 phases=3 Linecode=4c_.2 Length=0.11406 Units=m
New Line.LINE182_9 Bus1=182_9 Bus2=182_10 phases=3 Linecode=4c_.2 Length=0.080529 Units=m
New Line.LINE182_10 Bus1=182_10 Bus2=182_11 phases=3 Linecode=4c_.2 Length=0.87039 Units=m
New Line.LINE182_11 Bus1=182_11 Bus2=182_12 phases=3 Linecode=4c_.2 Length=0.12125 Units=m
New Line.LINE182_12 Bus1=182_12 Bus2=182_13 phases=3 Linecode=4c_.2 Length=0.21672 Units=m
New Line.LINE182_13 Bus1=182_13 Bus2=182_14 phases=3 Linecode=4c_.2 Length=0.28601 Units=m
New Line.LINE182_14 Bus1=182_14 Bus2=182_15 phases=3 Linecode=4c_.2 Length=0.14328 Units=m
New Line.LINE182_15 Bus1=182_15 Bus2=182_16 phases=3 Linecode=4c_.2 Length=1.3787 Units=m
New Line.LINE182_16 Bus1=182_16 Bus2=182_17 phases=3 Linecode=4c_.2 Length=1.0114 Units=m
New Line.LINE182_17 Bus1=182_17 Bus2=182_18 phases=3 Linecode=4c_.2 Length=12.1562 Units=m
New Line.LINE182_18 Bus1=182_18 Bus2=182_19 phases=3 Linecode=4c_.2 Length=3.1046 Units=m
New Line.LINE182_19 Bus1=182_19 Bus2=182_20 phases=3 Linecode=4c_.2 Length=0.15731 Units=m
New Line.LINE182_20 Bus1=182_20 Bus2=182_21 phases=3 Linecode=4c_.2 Length=0.18572 Units=m
New Line.LINE182_21 Bus1=182_21 Bus2=182_22 phases=3 Linecode=4c_.2 Length=0.23386 Units=m
New Line.LINE182_22 Bus1=182_22 Bus2=182_23 phases=3 Linecode=4c_.2 Length=0.15207 Units=m
New Line.LINE182_23 Bus1=182_23 Bus2=182_24 phases=3 Linecode=4c_.2 Length=0.1227 Units=m
New Line.LINE182_24 Bus1=182_24 Bus2=182_25 phases=3 Linecode=4c_.2 Length=10.8694 Units=m
New Line.LINE182_25 Bus1=182_25 Bus2=182_26 phases=3 Linecode=4c_.2 Length=10.1694 Units=m
New Line.LINE182_26 Bus1=182_26 Bus2=182_27 phases=3 Linecode=4c_.2 Length=5.0567 Units=m
New Line.LINE182_27 Bus1=182_27 Bus2=182_28 phases=3 Linecode=2c_.0225 Length=0.45965 Units=m
New Line.LINE182_28 Bus1=182_27 Bus2=182_29 phases=3 Linecode=4c_.2 Length=1.2197 Units=m
New Line.LINE182_29 Bus1=182_28 Bus2=182_30 phases=3 Linecode=2c_.0225 Length=0.57032 Units=m
New Line.LINE182_30 Bus1=182_29 Bus2=182_31 phases=3 Linecode=4c_.2 Length=0.59917 Units=m
New Line.LINE182_31 Bus1=182_30 Bus2=182_32 phases=3 Linecode=2c_.0225 Length=1.3317 Units=m
New Line.LINE182_32 Bus1=182_31 Bus2=182_33 phases=3 Linecode=4c_.2 Length=0.54932 Units=m
New Line.LINE182_33 Bus1=182_32 Bus2=182_34 phases=3 Linecode=2c_.0225 Length=0.60938 Units=m
New Line.LINE182_34 Bus1=182_33 Bus2=182_35 phases=3 Linecode=4c_.2 Length=0.27067 Units=m
New Line.LINE182_35 Bus1=182_34 Bus2=182_36 phases=3 Linecode=2c_.0225 Length=0.45891 Units=m
New Line.LINE182_36 Bus1=182_35 Bus2=182_37 phases=3 Linecode=4c_.2 Length=0.43233 Units=m
New Line.LINE182_37 Bus1=182_36 Bus2=182_38 phases=3 Linecode=2c_.0225 Length=0.49961 Units=m
New Line.LINE182_38 Bus1=182_37 Bus2=182_39 phases=3 Linecode=4c_.2 Length=0.32472 Units=m
New Line.LINE182_39 Bus1=182_38 Bus2=182_40 phases=3 Linecode=2c_.0225 Length=1.5817 Units=m
New Line.LINE182_40 Bus1=182_39 Bus2=182_41 phases=3 Linecode=4c_.2 Length=0.4237 Units=m
New Line.LINE182_41 Bus1=182_40 Bus2=182_42 phases=3 Linecode=2c_.0225 Length=0.4401 Units=m
New Line.LINE182_42 Bus1=182_41 Bus2=182_43 phases=3 Linecode=4c_.2 Length=0.45042 Units=m
New Line.LINE182_43 Bus1=182_42 Bus2=182_44 phases=3 Linecode=2c_.0225 Length=0.40819 Units=m
New Line.LINE182_44 Bus1=182_43 Bus2=182_45 phases=3 Linecode=4c_.2 Length=0.97801 Units=m
New Line.LINE182_45 Bus1=182_44 Bus2=182_46 phases=3 Linecode=2c_.0225 Length=2.4525 Units=m
New Line.LINE182_46 Bus1=182_45 Bus2=182_47 phases=3 Linecode=4c_.2 Length=12.0274 Units=m
New Line.LINE182_47 Bus1=182_46 Bus2=182_48 phases=3 Linecode=2c_.0225 Length=0.57527 Units=m
New Line.LINE182_48 Bus1=182_47 Bus2=182_49 phases=3 Linecode=4c_.2 Length=5.1883 Units=m
New Line.LINE182_49 Bus1=182_48 Bus2=182_50 phases=3 Linecode=2c_.0225 Length=0.11857 Units=m
New Line.LINE182_50 Bus1=182_49 Bus2=182_51 phases=3 Linecode=4c_.2 Length=0.25387 Units=m
New Line.LINE182_51 Bus1=182_50 Bus2=182_52 phases=3 Linecode=2c_.0225 Length=4.0822 Units=m
New Line.LINE182_52 Bus1=182_51 Bus2=182_53 phases=3 Linecode=4c_.2 Length=0.38354 Units=m
New Line.LINE182_53 Bus1=182_52 Bus2=182_54 phases=3 Linecode=2c_.0225 Length=0.20471 Units=m
New Line.LINE182_54 Bus1=182_53 Bus2=182_55 phases=3 Linecode=4c_.2 Length=0.45397 Units=m
New Line.LINE182_55 Bus1=182_54 Bus2=182_56 phases=3 Linecode=2c_.0225 Length=0.28918 Units=m
New Line.LINE182_56 Bus1=182_55 Bus2=182_57 phases=3 Linecode=4c_.2 Length=0.52105 Units=m
New Line.LINE182_57 Bus1=182_56 Bus2=182_58 phases=3 Linecode=2c_.0225 Length=0.34905 Units=m
New Line.LINE182_58 Bus1=182_57 Bus2=182_59 phases=3 Linecode=4c_.2 Length=0.46967 Units=m
New Line.LINE182_59 Bus1=182_58 Bus2=182_60 phases=3 Linecode=2c_.0225 Length=0.34718 Units=m
New Line.LINE182_60 Bus1=182_59 Bus2=182_61 phases=3 Linecode=4c_.2 Length=0.95116 Units=m
New Line.LINE182_61 Bus1=182_60 Bus2=182_62 phases=3 Linecode=2c_.0225 Length=0.076218 Units=m
New Line.LINE182_62 Bus1=182_61 Bus2=182_63 phases=3 Linecode=4c_.2 Length=0.38014 Units=m
New Line.LINE182_63 Bus1=182_62 Bus2=182_64 phases=3 Linecode=2c_.0225 Length=0.084403 Units=m
New Line.LINE182_64 Bus1=182_63 Bus2=182_65 phases=3 Linecode=4c_.2 Length=0.46908 Units=m
New Line.LINE182_65 Bus1=182_64 Bus2=182_66 phases=3 Linecode=2c_.0225 Length=0.30951 Units=m
New Line.LINE182_66 Bus1=182_65 Bus2=182_67 phases=3 Linecode=4c_.2 Length=0.60923 Units=m
New Line.LINE182_67 Bus1=182_66 Bus2=182_68 phases=3 Linecode=2c_.0225 Length=2.2223 Units=m
New Line.LINE182_68 Bus1=182_67 Bus2=182_69 phases=3 Linecode=4c_.2 Length=1.4115 Units=m
New Line.LINE182_69 Bus1=182_68 Bus2=182_70 phases=3 Linecode=2c_.0225 Length=1.4087 Units=m
New Line.LINE182_70 Bus1=182_68 Bus2=182_71 phases=3 Linecode=2c_.0225 Length=0.48244 Units=m
New Line.LINE182_71 Bus1=182_69 Bus2=182_72 phases=3 Linecode=4c_.2 Length=0.042427 Units=m
New Line.LINE182_72 Bus1=182_70 Bus2=182_73 phases=3 Linecode=2c_.0225 Length=0.17051 Units=m
New Line.LINE182_73 Bus1=182_72 Bus2=182_74 phases=3 Linecode=4c_.2 Length=1.3018 Units=m
New Line.LINE182_74 Bus1=182_73 Bus2=182_75 phases=3 Linecode=2c_.0225 Length=0.1367 Units=m
New Line.LINE182_75 Bus1=182_74 Bus2=182_76 phases=3 Linecode=4c_.2 Length=0.52502 Units=m
New Line.LINE182_76 Bus1=182_75 Bus2=182_77 phases=3 Linecode=2c_.0225 Length=0.13642 Units=m
New Line.LINE182_77 Bus1=182_76 Bus2=182_78 phases=3 Linecode=4c_.2 Length=0.57368 Units=m
New Line.LINE182_78 Bus1=182_77 Bus2=182_79 phases=3 Linecode=2c_.0225 Length=0.22381 Units=m
New Line.LINE182_79 Bus1=182_78 Bus2=182_80 phases=3 Linecode=4c_.2 Length=1.1037 Units=m
New Line.LINE182_80 Bus1=182_79 Bus2=182_81 phases=3 Linecode=2c_.0225 Length=0.32846 Units=m
New Line.LINE182_81 Bus1=182_80 Bus2=182_82 phases=3 Linecode=4c_.2 Length=1.1095 Units=m
New Line.LINE182_82 Bus1=182_81 Bus2=182_83 phases=3 Linecode=2c_.0225 Length=5.2002 Units=m
New Line.LINE182_83 Bus1=182_82 Bus2=182_84 phases=3 Linecode=4c_.2 Length=1.4615 Units=m
New Line.LINE182_84 Bus1=182_83 Bus2=182_85 phases=3 Linecode=2c_.0225 Length=0.31235 Units=m
New Line.LINE182_85 Bus1=182_84 Bus2=182_86 phases=3 Linecode=4c_.2 Length=1.2954 Units=m
New Line.LINE182_86 Bus1=182_85 Bus2=182_87 phases=3 Linecode=2c_.0225 Length=0.53413 Units=m
New Line.LINE182_87 Bus1=182_86 Bus2=182_88 phases=3 Linecode=4c_.2 Length=1.5779 Units=m
New Line.LINE182_88 Bus1=182_87 Bus2=182_89 phases=3 Linecode=2c_.0225 Length=0.44829 Units=m
New Line.LINE182_89 Bus1=182_88 Bus2=182_90 phases=3 Linecode=4c_.2 Length=1.5662 Units=m
New Line.LINE182_90 Bus1=182_89 Bus2=182_91 phases=3 Linecode=2c_.0225 Length=1.0109 Units=m
New Line.LINE182_91 Bus1=182_90 Bus2=182_92 phases=3 Linecode=4c_.2 Length=1.6368 Units=m
New Line.LINE182_92 Bus1=182_92 Bus2=182_93 phases=3 Linecode=25_SAC_PC Length=0.18882 Units=m
New Line.LINE182_93 Bus1=182_92 Bus2=182_94 phases=3 Linecode=4c_.2 Length=1.2181 Units=m
New Line.LINE182_94 Bus1=182_93 Bus2=182_95 phases=3 Linecode=25_SAC_PC Length=0.084929 Units=m
New Line.LINE182_95 Bus1=182_94 Bus2=182_96 phases=3 Linecode=2c_.0225 Length=0.048977 Units=m
New Line.LINE182_96 Bus1=182_94 Bus2=182_97 phases=3 Linecode=4c_.2 Length=1.7462 Units=m
New Line.LINE182_97 Bus1=182_95 Bus2=182_98 phases=3 Linecode=25_SAC_PC Length=0.14567 Units=m
New Line.LINE182_98 Bus1=182_96 Bus2=182_99 phases=3 Linecode=2c_.0225 Length=0.079396 Units=m
New Line.LINE182_99 Bus1=182_97 Bus2=182_100 phases=3 Linecode=4c_.2 Length=1.0862 Units=m
New Line.LINE182_100 Bus1=182_98 Bus2=182_101 phases=3 Linecode=25_SAC_PC Length=0.090272 Units=m
New Line.LINE182_101 Bus1=182_99 Bus2=182_102 phases=3 Linecode=2c_.0225 Length=0.052354 Units=m
New Line.LINE182_102 Bus1=182_100 Bus2=182_103 phases=3 Linecode=4c_.2 Length=1.0241 Units=m
New Line.LINE182_103 Bus1=182_101 Bus2=182_104 phases=3 Linecode=25_SAC_PC Length=0.090078 Units=m
New Line.LINE182_104 Bus1=182_102 Bus2=182_105 phases=3 Linecode=2c_.0225 Length=0.046616 Units=m
New Line.LINE182_105 Bus1=182_103 Bus2=182_106 phases=3 Linecode=4c_.2 Length=1.0391 Units=m
New Line.LINE182_106 Bus1=182_104 Bus2=182_107 phases=3 Linecode=25_SAC_PC Length=0.13703 Units=m
New Line.LINE182_107 Bus1=182_105 Bus2=182_108 phases=3 Linecode=2c_.0225 Length=0.054745 Units=m
New Line.LINE182_108 Bus1=182_106 Bus2=182_109 phases=3 Linecode=4c_.2 Length=1.2112 Units=m
New Line.LINE182_109 Bus1=182_107 Bus2=182_110 phases=3 Linecode=25_SAC_PC Length=14.5995 Units=m
New Line.LINE182_110 Bus1=182_108 Bus2=182_111 phases=3 Linecode=2c_.0225 Length=0.044181 Units=m
New Line.LINE182_111 Bus1=182_109 Bus2=182_112 phases=3 Linecode=4c_.2 Length=1.3004 Units=m
New Line.LINE182_112 Bus1=182_110 Bus2=182_113 phases=3 Linecode=25_SAC_PC Length=0.44887 Units=m
New Line.LINE182_113 Bus1=182_111 Bus2=182_114 phases=3 Linecode=2c_.0225 Length=0.05954 Units=m
New Line.LINE182_114 Bus1=182_112 Bus2=182_115 phases=3 Linecode=4c_.2 Length=1.269 Units=m
New Line.LINE182_115 Bus1=182_113 Bus2=182_116 phases=3 Linecode=25_SAC_PC Length=0.17414 Units=m
New Line.LINE182_116 Bus1=182_114 Bus2=182_117 phases=3 Linecode=2c_.0225 Length=0.032249 Units=m
New Line.LINE182_117 Bus1=182_115 Bus2=182_118 phases=3 Linecode=4c_.2 Length=1.0793 Units=m
New Line.LINE182_118 Bus1=182_116 Bus2=182_119 phases=3 Linecode=25_SAC_PC Length=0.27389 Units=m
New Line.LINE182_119 Bus1=182_117 Bus2=182_120 phases=3 Linecode=2c_.0225 Length=0.047708 Units=m
New Line.LINE182_120 Bus1=182_118 Bus2=182_121 phases=3 Linecode=4c_.2 Length=1.1236 Units=m
New Line.LINE182_121 Bus1=182_119 Bus2=182_122 phases=3 Linecode=25_SAC_PC Length=0.19123 Units=m
New Line.LINE182_122 Bus1=182_120 Bus2=182_123 phases=3 Linecode=2c_.0225 Length=0.054672 Units=m
New Line.LINE182_123 Bus1=182_121 Bus2=182_124 phases=3 Linecode=4c_.2 Length=1.1511 Units=m
New Line.LINE182_124 Bus1=182_122 Bus2=182_125 phases=3 Linecode=25_SAC_PC Length=4.5319 Units=m
New Line.LINE182_125 Bus1=182_123 Bus2=182_126 phases=3 Linecode=2c_.0225 Length=0.041437 Units=m
New Line.LINE182_126 Bus1=182_124 Bus2=182_127 phases=3 Linecode=4c_.2 Length=0.52454 Units=m
New Line.LINE182_127 Bus1=182_125 Bus2=182_128 phases=3 Linecode=25_SAC_PC Length=0.36752 Units=m
New Line.LINE182_128 Bus1=182_126 Bus2=182_129 phases=3 Linecode=2c_.0225 Length=0.34647 Units=m
New Line.LINE182_129 Bus1=182_127 Bus2=182_130 phases=3 Linecode=4c_.2 Length=0.48093 Units=m
New Line.LINE182_130 Bus1=182_128 Bus2=182_131 phases=3 Linecode=25_SAC_PC Length=0.21893 Units=m
New Line.LINE182_131 Bus1=182_129 Bus2=182_132 phases=3 Linecode=2c_.0225 Length=14.3462 Units=m
New Line.LINE182_132 Bus1=182_130 Bus2=182_133 phases=3 Linecode=4c_.2 Length=0.48572 Units=m
New Line.LINE182_133 Bus1=182_131 Bus2=182_134 phases=3 Linecode=25_SAC_PC Length=0.18916 Units=m
New Line.LINE182_134 Bus1=182_132 Bus2=182_135 phases=3 Linecode=2c_.0225 Length=0.43684 Units=m
New Line.LINE182_135 Bus1=182_133 Bus2=182_136 phases=3 Linecode=4c_.2 Length=0.72681 Units=m
New Line.LINE182_136 Bus1=182_134 Bus2=182_137 phases=3 Linecode=25_SAC_PC Length=0.16462 Units=m
New Line.LINE182_137 Bus1=182_135 Bus2=182_138 phases=3 Linecode=2c_.0225 Length=0.15715 Units=m
New Line.LINE182_138 Bus1=182_136 Bus2=182_139 phases=3 Linecode=4c_.2 Length=0.61692 Units=m
New Line.LINE182_139 Bus1=182_137 Bus2=182_140 phases=3 Linecode=25_SAC_PC Length=0.17323 Units=m
New Line.LINE182_140 Bus1=182_138 Bus2=182_141 phases=3 Linecode=2c_.0225 Length=0.25279 Units=m
New Line.LINE182_141 Bus1=182_139 Bus2=182_142 phases=3 Linecode=4c_.2 Length=0.61759 Units=m
New Line.LINE182_142 Bus1=182_140 Bus2=182_143 phases=3 Linecode=25_SAC_PC Length=0.55567 Units=m
New Line.LINE182_143 Bus1=182_141 Bus2=182_144 phases=3 Linecode=2c_.0225 Length=0.173 Units=m
New Line.LINE182_144 Bus1=182_142 Bus2=182_145 phases=3 Linecode=4c_.2 Length=0.45176 Units=m
New Line.LINE182_145 Bus1=182_143 Bus2=182_146 phases=3 Linecode=25_SAC_PC Length=4.5667 Units=m
New Line.LINE182_146 Bus1=182_144 Bus2=182_147 phases=3 Linecode=2c_.0225 Length=4.6504 Units=m
New Line.LINE182_147 Bus1=182_145 Bus2=182_148 phases=3 Linecode=4c_.2 Length=0.57106 Units=m
New Line.LINE182_148 Bus1=182_146 Bus2=182_149 phases=3 Linecode=25_SAC_PC Length=0.555 Units=m
New Line.LINE182_149 Bus1=182_147 Bus2=182_150 phases=3 Linecode=2c_.0225 Length=0.24061 Units=m
New Line.LINE182_150 Bus1=182_148 Bus2=182_151 phases=3 Linecode=4c_.2 Length=0.58253 Units=m
New Line.LINE182_151 Bus1=182_149 Bus2=182_152 phases=3 Linecode=25_SAC_PC Length=0.51819 Units=m
New Line.LINE182_152 Bus1=182_150 Bus2=182_153 phases=3 Linecode=2c_.0225 Length=0.1593 Units=m
New Line.LINE182_153 Bus1=182_151 Bus2=182_154 phases=3 Linecode=4c_.1 Length=3.6546 Units=m
New Line.LINE182_154 Bus1=182_151 Bus2=182_155 phases=3 Linecode=4c_.1 Length=6.1956 Units=m
New Line.LINE182_155 Bus1=182_152 Bus2=182_156 phases=3 Linecode=25_SAC_PC Length=2.8588 Units=m
New Line.LINE182_156 Bus1=182_153 Bus2=182_157 phases=3 Linecode=2c_.0225 Length=0.20681 Units=m
New Line.LINE182_157 Bus1=182_154 Bus2=182_158 phases=3 Linecode=4c_.1 Length=1.7919 Units=m
New Line.LINE182_158 Bus1=182_155 Bus2=182_159 phases=3 Linecode=4c_.1 Length=0.40241 Units=m
New Line.LINE182_159 Bus1=182_156 Bus2=182_160 phases=3 Linecode=25_SAC_PC Length=0.3784 Units=m
New Line.LINE182_160 Bus1=182_157 Bus2=182_161 phases=3 Linecode=2c_.0225 Length=0.29574 Units=m
New Line.LINE182_161 Bus1=182_158 Bus2=182_162 phases=3 Linecode=4c_.1 Length=2.0488 Units=m
New Line.LINE182_162 Bus1=182_159 Bus2=182_163 phases=3 Linecode=4c_.1 Length=0.1529 Units=m
New Line.LINE182_163 Bus1=182_160 Bus2=182_164 phases=3 Linecode=25_SAC_PC Length=0.10547 Units=m
New Line.LINE182_164 Bus1=182_161 Bus2=182_165 phases=3 Linecode=2c_.0225 Length=0.38777 Units=m
New Line.LINE182_165 Bus1=182_162 Bus2=182_166 phases=3 Linecode=4c_.1 Length=2.0691 Units=m
New Line.LINE182_166 Bus1=182_163 Bus2=182_167 phases=3 Linecode=4c_.1 Length=0.13909 Units=m
New Line.LINE182_167 Bus1=182_164 Bus2=182_168 phases=3 Linecode=25_SAC_PC Length=0.097801 Units=m
New Line.LINE182_168 Bus1=182_165 Bus2=182_169 phases=3 Linecode=2c_.0225 Length=0.24007 Units=m
New Line.LINE182_169 Bus1=182_166 Bus2=182_170 phases=3 Linecode=4c_.1 Length=2.047 Units=m
New Line.LINE182_170 Bus1=182_167 Bus2=182_171 phases=3 Linecode=4c_.1 Length=0.18146 Units=m
New Line.LINE182_171 Bus1=182_168 Bus2=182_172 phases=3 Linecode=25_SAC_PC Length=0.072007 Units=m
New Line.LINE182_172 Bus1=182_169 Bus2=182_173 phases=3 Linecode=2c_.0225 Length=0.38422 Units=m
New Line.LINE182_173 Bus1=182_170 Bus2=182_174 phases=3 Linecode=4c_.1 Length=2.9235 Units=m
New Line.LINE182_174 Bus1=182_171 Bus2=182_175 phases=3 Linecode=4c_.1 Length=0.10966 Units=m
New Line.LINE182_175 Bus1=182_172 Bus2=182_176 phases=3 Linecode=25_SAC_PC Length=0.09 Units=m
New Line.LINE182_176 Bus1=182_173 Bus2=182_177 phases=3 Linecode=2c_.0225 Length=0.88626 Units=m
New Line.LINE182_177 Bus1=182_174 Bus2=182_178 phases=3 Linecode=4c_.1 Length=2.9753 Units=m
New Line.LINE182_178 Bus1=182_175 Bus2=182_179 phases=3 Linecode=4c_.1 Length=0.15546 Units=m
New Line.LINE182_179 Bus1=182_176 Bus2=182_180 phases=3 Linecode=25_SAC_PC Length=0.066121 Units=m
New Line.LINE182_180 Bus1=182_177 Bus2=182_181 phases=3 Linecode=2c_.0225 Length=1.6466 Units=m
New Line.LINE182_181 Bus1=182_178 Bus2=182_182 phases=3 Linecode=4c_.1 Length=2.1817 Units=m
New Line.LINE182_182 Bus1=182_179 Bus2=182_183 phases=3 Linecode=4c_.1 Length=0.131 Units=m
New Line.LINE182_183 Bus1=182_180 Bus2=182_184 phases=3 Linecode=25_SAC_PC Length=0.13366 Units=m
New Line.LINE182_184 Bus1=182_181 Bus2=182_185 phases=3 Linecode=2c_.0225 Length=1.6326 Units=m
New Line.LINE182_185 Bus1=182_182 Bus2=182_186 phases=3 Linecode=4c_.1 Length=2.6494 Units=m
New Line.LINE182_186 Bus1=182_182 Bus2=182_187 phases=3 Linecode=3c_.03_UA Length=0.079511 Units=m
New Line.LINE182_187 Bus1=182_183 Bus2=182_188 phases=3 Linecode=4c_.1 Length=0.14599 Units=m
New Line.LINE182_188 Bus1=182_184 Bus2=182_189 phases=3 Linecode=25_SAC_PC Length=1.6286 Units=m
New Line.LINE182_189 Bus1=182_185 Bus2=182_190 phases=3 Linecode=2c_.0225 Length=1.603 Units=m
New Line.LINE182_190 Bus1=182_186 Bus2=182_191 phases=3 Linecode=4c_.1 Length=6.1181 Units=m
New Line.LINE182_191 Bus1=182_186 Bus2=182_192 phases=3 Linecode=4c_.1 Length=0.11815 Units=m
New Line.LINE182_192 Bus1=182_187 Bus2=182_193 phases=3 Linecode=3c_.03_UA Length=0.039825 Units=m
New Line.LINE182_193 Bus1=182_188 Bus2=182_194 phases=3 Linecode=4c_.1 Length=0.20762 Units=m
New Line.LINE182_194 Bus1=182_189 Bus2=182_195 phases=3 Linecode=25_SAC_PC Length=1.6084 Units=m
New Line.LINE182_195 Bus1=182_189 Bus2=182_196 phases=3 Linecode=2c_.0225 Length=0.88352 Units=m
New Line.LINE182_196 Bus1=182_190 Bus2=182_197 phases=3 Linecode=2c_.0225 Length=1.2038 Units=m
New Line.LINE182_197 Bus1=182_191 Bus2=182_198 phases=3 Linecode=4c_.1 Length=3.2499 Units=m
New Line.LINE182_198 Bus1=182_192 Bus2=182_199 phases=3 Linecode=4c_.1 Length=0.060374 Units=m
New Line.LINE182_199 Bus1=182_193 Bus2=182_200 phases=3 Linecode=3c_.03_UA Length=0.047074 Units=m
New Line.LINE182_200 Bus1=182_194 Bus2=182_201 phases=3 Linecode=4c_.1 Length=0.17049 Units=m
...
