Test_Network/condensed/network_18/Feeder_2/LoadsCopyUnq.txt
New Load.LOAD182_1 Phases=1 Bus1=182_71.2 kV=0.23 kW=1 PF=0.95
New Load.LOAD182_2 Phases=1 Bus1=182_196.3 kV=0.23 kW=1 PF=0.95
New Load.LOAD182_3 Phases=1 Bus1=182_239.2 kV=0.23 kW=1 PF=0.95
New Load.LOAD182_4 Phases=1 Bus1=182_314.3 kV=0.23 kW=1 PF=0.95
New Load.LOAD182_5 Phases=1 Bus1=182_405.3 kV=0.23 kW=1 PF=0.95
New Load.LOAD182_6 Phases=1 Bus1=182_514.2 kV=0.23 kW=1 PF=0.95
New Load.LOAD182_7 Phases=1 Bus1=182_606.3 kV=0.23 kW=1 PF=0.95
New Load.LOAD182_8 Phases=1 Bus1=182_614.2 kV=0.23 kW=1 PF=0.95
New Load.LOAD182_9 Phases=1 Bus1=182_712.1 kV=0.23 kW=1 PF=0.95
New Load.LOAD182_10 Phases=1 Bus1=182_747.1 kV=0.23 kW=1 PF=0.95
New Load.LOAD182_11 Phases=1 Bus1=182_762.3 kV=0.23 kW=1 PF=0.95
New Load.LOAD182_12 Phases=1 Bus1=182_780.1 kV=0.23 kW=1 PF=0.95
New Load.LOAD182_13 Phases=1 Bus1=182_791.2 kV=0.23 kW=1 PF=0.95
New Load.LOAD182_14 Phases=1 Bus1=182_843.3 kV=0.23 kW=1 PF=0.95
New Load.LOAD182_15 Phases=1 Bus1=182_849.1 kV=0.23 kW=1 PF=0.95
New Load.LOAD182_16 Phases=1 Bus1=182_898.3 kV=0.23 kW=1 PF=0.95
New Load.LOAD182_17 Phases=1 Bus1=182_908.2 kV=0.23 kW=1 PF=0.95
New Load.LOAD182_18 Phases=1 Bus1=182_909.2 kV=0.23 kW=1 PF=0.95
New Load.LOAD182_19 Phases=1 Bus1=182_920.2 kV=0.23 kW=1 PF=0.95
New Load.LOAD182_20 Phases=1 Bus1=182_938.3 kV=0.23 kW=1 PF=0.95
New Load.LOAD182_21 Phases=1 Bus1=182_975.3 kV=0.23 kW=1 PF=0.95
New Load.LOAD182_22 Phases=1 Bus1=182_982.2 kV=0.23 kW=1 PF=0.95
New Load.LOAD182_23 Phases=1 Bus1=182_984.3 kV=0.23 kW=1 PF=0.95
New Load.LOAD182_24 Phases=1 Bus1=182_990.2 kV=0.23 kW=1 PF=0.95
