Test_Network/condensed/network_18/Feeder_3/LoadsCopyUnq.txt
New Load.LOAD183_1 Phases=1 Bus1=183_225.3 kV=0.23 kW=1 PF=0.95
New Load.LOAD183_2 Phases=1 Bus1=183_254.3 kV=0.23 kW=1 PF=0.95
New Load.LOAD183_3 Phases=1 Bus1=183_261.1 kV=0.23 kW=1 PF=0.95
New Load.LOAD183_4 Phases=1 Bus1=183_328.2 kV=0.23 kW=1 PF=0.95
New Load.LOAD183_5 Phases=1 Bus1=183_340.2 kV=0.23 kW=1 PF=0.95
New Load.LOAD183_6 Phases=1 Bus1=183_361.2 kV=0.23 kW=1 PF=0.95
New Load.LOAD183_7 Phases=1 Bus1=183_424.2 kV=0.23 kW=1 PF=0.95
New Load.LOAD183_8 Phases=1 Bus1=183_426.3 kV=0.23 kW=1 PF=0.95
New Load.LOAD183_9 Phases=1 Bus1=183_560.3 kV=0.23 kW=1 PF=0.95
New Load.LOAD183_10 Phases=1 Bus1=183_595.2 kV=0.23 kW=1 PF=0.95
New Load.LOAD183_11 Phases=1 Bus1=183_601.1 kV=0.23 kW=1 PF=0.95
New Load.LOAD183_12 Phases=1 Bus1=183_614.1 kV=0.23 kW=1 PF=0.95
New Load.LOAD183_13 Phases=1 Bus1=183_631.3 kV=0.23 kW=1 PF=0.95
New Load.LOAD183_14 Phases=1 Bus1=183_642.3 kV=0.23 kW=1 PF=0.95
New Load.LOAD183_15 Phases=1 Bus1=183_648.2 kV=0.23 kW=1 PF=0.95
New Load.LOAD183_16 Phases=1 Bus1=183_690.3 kV=0.23 kW=1 PF=0.95
New Load.LOAD183_17 Phases=1 Bus1=183_701.1 kV=0.23 kW=1 PF=0.95
New Load.LOAD183_18 Phases=1 Bus1=183_713.1 kV=0.23 kW=1 PF=0.95
New Load.LOAD183_19 Phases=1 Bus1=183_719.1 kV=0.23 kW=1 PF=0.95
New Load.LOAD183_20 Phases=1 Bus1=183_722.2 kV=0.23 kW=1 PF=0.95
New Load.LOAD183_21 Phases=1 Bus1=183_738.1 kV=0.23 kW=1 PF=0.95
New Load.LOAD183_22 Phases=1 Bus1=183_751.2 kV=0.23 kW=1 PF=0.95
New Load.LOAD183_23 Phases=1 Bus1=183_785.3 kV=0.23 kW=1 PF=0.95
New Load.LOAD183_24 Phases=1 Bus1=183_808.2 kV=0.23 kW=1 PF=0.95
New Load.LOAD183_25 Phases=1 Bus1=183_810.1 kV=0.23 kW=1 PF=0.95
New Load.LOAD183_26 Phases=1 Bus1=183_882.3 kV=0.23 kW=1 PF=0.95
New Load.LOAD183_27 Phases=1 Bus1=183_905.2 kV=0.23 kW=1 PF=0.95
New Load.LOAD183_28 Phases=1 Bus1=183_914.1 kV=0.23 kW=1 PF=0.95
New Load.LOAD183_29 Phases=1 Bus1=183_925.2 kV=0.23 kW=1 PF=0.95
New Load.LOAD183_30 Phases=1 Bus1=183_933.1 kV=0.23 kW=1 PF=0.95
New Load.LOAD183_31 Phases=1 Bus1=183_950.1 kV=0.23 kW=1 PF=0.95
New Load.LOAD183_32 Phases=1 Bus1=183_985.3 kV=0.23 kW=1 PF=0.95
New Load.LOAD183_33 Phases=1 Bus1=183_991.2 kV=0.23 kW=1 PF=0.95
New Load.LOAD183_34 Phases=1 Bus1=183_1001.2 kV=0.23 kW=1 PF=0.95
New Load.LOAD183_35 Phases=1 Bus1=183_1063.3 kV=0.23 kW=1 PF=0.95
New Load.LOAD183_36 Phases=1 Bus1=183_1070.3 kV=0.23 kW=1 PF=0.95
New Load.LOAD183_37 Phases=1 Bus1=183_1078.3 kV=0.23 kW=1 PF=0.95
New Load.LOAD183_38 Phases=1 Bus1=183_1083.2 kV=0.23 kW=1 PF=0.95
New Load.LOAD183_39 Phases=1 Bus1=183_1084.3 kV=0.23 kW=1 PF=0.95
New Load.LOAD183_40 Phases=1 Bus1=183_1086.3 kV=0.23 kW=1 PF=0.95
New Load.LOAD183_41 Phases=1 Bus1=183_1094.3 kV=0.23 kW=1 PF=0.95
New Load.LOAD183_42 Phases=1 Bus1=183_1111.1 kV=0.23 kW=1 PF=0.95
New Load.LOAD183_43 Phases=1 Bus1=183_1188.3 kV=0.23 kW=1 PF=0.95
New Load.LOAD183_44 Phases=1 Bus1=183_1192.3 kV=0.23 kW=1 PF=0.95
New Load.LOAD183_45 Phases=1 Bus1=183_1209.1 kV=0.23 kW=1 PF=0.95
New Load.LOAD183_46 Phases=1 Bus1=183_1350.3 kV=0.23 kW=1 PF=0.95
New Load.LOAD183_47 Phases=1 Bus1=183_1362.2 kV=0.23 kW=1 PF=0.95
New Load.LOAD183_48 Phases=1 Bus1=183_1428.2 kV=0.23 kW=1 PF=0.95
New Load.LOAD183_49 Phases=1 Bus1=183_1452.2 kV=0.23 kW=1 PF=0.95
New Load.LOAD183_50 Phases=1 Bus1=183_1456.1 kV=0.23 kW=1 PF=0.95
New Load.LOAD183_51 Phases=1 Bus1=183_1490.1 kV=0.23 kW=1 PF=0.95
