Test_Network/condensed/network_18/Feeder_4/LinesUnq.txt
New Line.LINE184_1 Bus1=184_1 Bus2=184_2 phases=3 Linecode=4c_.2 Length=0.40712 Units=m
New Line.LINE184_2 Bus1=184_2 Bus2=184_3 phases=3 Linecode=4c_.2 Length=0.073239 Units=m
New Line.LINE184_3 Bus1=184_3 Bus2=184_4 phases=3 Linecode=4c_.2 Length=0.081565 Units=m
New Line.LINE184_4 Bus1=184_4 Bus2=184_5 phases=3 Linecode=4c_.2 Length=0.068877 Units=m
New Line.LINE184_5 Bus1=184_5 Bus2=184_6 phases=3 Linecode=4c_.2 Length=0.077666 Units=m
New Line.LINE184_6 Bus1=184_6 Bus2=184_7 phases=3 Linecode=4c_.2 Length=0.05601 Units=m
New Line.LINE184_7 Bus1=184_7 Bus2=184_8 phases=3 Linecode=4c_.2 Length=0.061391 Units=m
New Line.LINE184_8 Bus1=184_8 Bus2=184_9 phases=3 Linecode=4c_.2 Length=0.051078 Units=m
New Line.LINE184_9 Bus1=184_9 Bus2=184_10 phases=3 Linecode=4c_.2 Length=0.15118 Units=m
New Line.LINE184_10 Bus1=184_10 Bus2=184_11 phases=3 Linecode=4c_.2 Length=0.042942 Units=m
New Line.LINE184_11 Bus1=184_11 Bus2=184_12 phases=3 Linecode=4c_.2 Length=1.5146 Units=m
New Line.LINE184_12 Bus1=184_12 Bus2=184_13 phases=3 Linecode=4c_.2 Length=0.15593 Units=m
New Line.LINE184_13 Bus1=184_13 Bus2=184_14 phases=3 Linecode=4c_.2 Length=0.12304 Units=m
New Line.LINE184_14 Bus1=184_14 Bus2=184_15 phases=3 Linecode=4c_.2 Length=0.089445 Units=m
New Line.LINE184_15 Bus1=184_15 Bus2=184_16 phases=3 Linecode=4c_.2 Length=0.26602 Units=m
New Line.LINE184_16 Bus1=184_16 Bus2=184_17 phases=3 Linecode=4c_.2 Length=0.084723 Units=m
New Line.LINE184_17 Bus1=184_17 Bus2=184_18 phases=3 Linecode=4c_.2 Length=0.098716 Units=m
New Line.LINE184_18 Bus1=184_18 Bus2=184_19 phases=3 Linecode=4c_.2 Length=0.84795 Units=m
New Line.LINE184_19 Bus1=184_19 Bus2=184_20 phases=3 Linecode=4c_.2 Length=0.20939 Units=m
New Line.LINE184_20 Bus1=184_20 Bus2=184_21 phases=3 Linecode=4c_.2 Length=0.21397 Units=m
New Line.LINE184_21 Bus1=184_21 Bus2=184_22 phases=3 Linecode=4c_.2 Length=0.85212 Units=m
New Line.LINE184_22 Bus1=184_22 Bus2=184_23 phases=3 Linecode=4c_.2 Length=3.2798 Units=m
New Line.LINE184_23 Bus1=184_23 Bus2=184_24 phases=3 Linecode=4c_.2 Length=11.8178 Units=m
New Line.LINE184_24 Bus1=184_24 Bus2=184_25 phases=3 Linecode=4c_.2 Length=0.45174 Units=m
New Line.LINE184_25 Bus1=184_25 Bus2=184_26 phases=3 Linecode=4c_.2 Length=0.47456 Units=m
New Line.LINE184_26 Bus1=184_26 Bus2=184_27 phases=3 Linecode=4c_.2 Length=0.29464 Units=m
New Line.LINE184_27 Bus1=184_27 Bus2=184_28 phases=3 Linecode=4c_.2 Length=0.37326 Units=m
New Line.LINE184_28 Bus1=184_28 Bus2=184_29 phases=3 Linecode=4c_.2 Length=0.65829 Units=m
New Line.LINE184_29 Bus1=184_29 Bus2=184_30 phases=3 Linecode=4c_.2 Length=9.9271 Units=m
New Line.LINE184_30 Bus1=184_30 Bus2=184_31 phases=3 Linecode=4c_.2 Length=5.4851 Units=m
New Line.LINE184_31 Bus1=184_31 Bus2=184_32 phases=3 Linecode=2c_.0225 Length=0.71413 Units=m
New Line.LINE184_32 Bus1=184_31 Bus2=184_33 phases=3 Linecode=4c_.2 Length=6.9423 Units=m
New Line.LINE184_33 Bus1=184_32 Bus2=184_34 phases=3 Linecode=2c_.0225 Length=0.1154 Units=m
New Line.LINE184_34 Bus1=184_33 Bus2=184_35 phases=3 Linecode=4c_.2 Length=4.6368 Units=m
New Line.LINE184_35 Bus1=184_34 Bus2=184_36 phases=3 Linecode=2c_.0225 Length=0.10871 Units=m
New Line.LINE184_36 Bus1=184_35 Bus2=184_37 phases=3 Linecode=4c_.2 Length=0.51382 Units=m
New Line.LINE184_37 Bus1=184_36 Bus2=184_38 phases=3 Linecode=2c_.0225 Length=0.129 Units=m
New Line.LINE184_38 Bus1=184_37 Bus2=184_39 phases=3 Linecode=4c_.2 Length=0.54657 Units=m
New Line.LINE184_39 Bus1=184_38 Bus2=184_40 phases=3 Linecode=2c_.0225 Length=0.13981 Units=m
New Line.LINE184_40 Bus1=184_39 Bus2=184_41 phases=3 Linecode=4c_.2 Length=0.34311 Units=m
New Line.LINE184_41 Bus1=184_40 Bus2=184_42 phases=3 Linecode=2c_.0225 Length=0.082037 Units=m
New Line.LINE184_42 Bus1=184_41 Bus2=184_43 phases=3 Linecode=4c_.2 Length=0.46453 Units=m
New Line.LINE184_43 Bus1=184_42 Bus2=184_44 phases=3 Linecode=2c_.0225 Length=0.093408 Units=m
New Line.LINE184_44 Bus1=184_43 Bus2=184_45 phases=3 Linecode=4c_.2 Length=0.56564 Units=m
New Line.LINE184_45 Bus1=184_44 Bus2=184_46 phases=3 Linecode=2c_.0225 Length=0.14166 Units=m
New Line.LINE184_46 Bus1=184_45 Bus2=184_47 phases=3 Linecode=4c_.2 Length=17.5012 Units=m
New Line.LINE184_47 Bus1=184_46 Bus2=184_48 phases=3 Linecode=2c_.0225 Length=0.24554 Units=m
New Line.LINE184_48 Bus1=184_47 Bus2=184_49 phases=3 Linecode=4c_.2 Length=1.2177 Units=m
New Line.LINE184_49 Bus1=184_48 Bus2=184_50 phases=3 Linecode=2c_.0225 Length=0.51388 Units=m
New Line.LINE184_50 Bus1=184_49 Bus2=184_51 phases=3 Linecode=4c_.2 Length=0.18928 Units=m
New Line.LINE184_51 Bus1=184_50 Bus2=184_52 phases=3 Linecode=2c_.0225 Length=7.8575 Units=m
New Line.LINE184_52 Bus1=184_51 Bus2=184_53 phases=3 Linecode=4c_.2 Length=0.20762 Units=m
New Line.LINE184_53 Bus1=184_52 Bus2=184_54 phases=3 Linecode=2c_.0225 Length=0.11552 Units=m
New Line.LINE184_54 Bus1=184_53 Bus2=184_55 phases=3 Linecode=4c_.2 Length=0.41523 Units=m
New Line.LINE184_55 Bus1=184_54 Bus2=184_56 phases=3 Linecode=2c_.0225 Length=0.44819 Units=m
New Line.LINE184_56 Bus1=184_55 Bus2=184_57 phases=3 Linecode=4c_.2 Length=0.57986 Units=m
New Line.LINE184_57 Bus1=184_56 Bus2=184_58 phases=3 Linecode=2c_.0225 Length=2.5787 Units=m
New Line.LINE184_58 Bus1=184_57 Bus2=184_59 phases=3 Linecode=4c_.2 Length=1.3223 Units=m
New Line.LINE184_59 Bus1=184_58 Bus2=184_60 phases=3 Linecode=2c_.0225 Length=0.053075 Units=m
New Line.LINE184_60 Bus1=184_59 Bus2=184_61 phases=3 Linecode=4c_.2 Length=1.3754 Units=m
New Line.LINE184_61 Bus1=184_60 Bus2=184_62 phases=3 Linecode=2c_.0225 Length=0.16589 Units=m
New Line.LINE184_62 Bus1=184_61 Bus2=184_63 phases=3 Linecode=4c_.2 Length=1.5804 Units=m
New Line.LINE184_63 Bus1=184_62 Bus2=184_64 phases=3 Linecode=2c_.0225 Length=0.52773 Units=m
New Line.LINE184_64 Bus1=184_63 Bus2=184_65 phases=3 Linecode=4c_.2 Length=0.3542 Units=m
New Line.LINE184_65 Bus1=184_64 Bus2=184_66 phases=3 Linecode=2c_.0225 Length=0.29249 Units=m
New Line.LINE184_66 Bus1=184_65 Bus2=184_67 phases=3 Linecode=4c_.2 Length=0.7699 Units=m
New Line.LINE184_67 Bus1=184_66 Bus2=184_68 phases=3 Linecode=2c_.0225 Length=0.28588 Units=m
New Line.LINE184_68 Bus1=184_67 Bus2=184_69 phases=3 Linecode=4c_.2 Length=2.964 Units=m
New Line.LINE184_69 Bus1=184_68 Bus2=184_70 phases=3 Linecode=2c_.0225 Length=0.20735 Units=m
New Line.LINE184_70 Bus1=184_69 Bus2=184_71 phases=3 Linecode=4c_.2 Length=1.9007 Units=m
New Line.LINE184_71 Bus1=184_70 Bus2=184_72 phases=3 Linecode=2c_.0225 Length=2.0693 Units=m
New Line.LINE184_72 Bus1=184_71 Bus2=184_73 phases=3 Linecode=4c_.2 Length=1.0764 Units=m
New Line.LINE184_73 Bus1=184_72 Bus2=184_74 phases=3 Linecode=2c_.0225 Length=0.24382 Units=m
New Line.LINE184_74 Bus1=184_73 Bus2=184_75 phases=3 Linecode=4c_.2 Length=1.5423 Units=m
New Line.LINE184_75 Bus1=184_74 Bus2=184_76 phases=3 Linecode=2c_.0225 Length=0.39665 Units=m
New Line.LINE184_76 Bus1=184_75 Bus2=184_77 phases=3 Linecode=4c_.2 Length=0.83607 Units=m
New Line.LINE184_77 Bus1=184_76 Bus2=184_78 phases=3 Linecode=2c_.0225 Length=0.41559 Units=m
New Line.LINE184_78 Bus1=184_77 Bus2=184_79 phases=3 Linecode=4c_.2 Length=1.2754 Units=m
New Line.LINE184_79 Bus1=184_78 Bus2=184_80 phases=3 Linecode=2c_.0225 Length=0.87022 Units=m
New Line.LINE184_80 Bus1=184_79 Bus2=184_81 phases=3 Linecode=4c_.2 Length=1.147 Units=m
New Line.LINE184_81 Bus1=184_80 Bus2=184_82 phases=3 Linecode=2c_.0225 Length=0.89601 Units=m
New Line.LINE184_82 Bus1=184_80 Bus2=184_83 phases=3 Linecode=2c_.0225 Length=1.6337 Units=m
New Line.LINE184_83 Bus1=184_81 Bus2=184_84 phases=3 Linecode=2c_.0225 Length=0.19769 Units=m
New Line.LINE184_84 Bus1=184_81 Bus2=184_85 phases=3 Linecode=4c_.2 Length=0.65744 Units=m
New Line.LINE184_85 Bus1=184_82 Bus2=184_86 phases=3 Linecode=2c_.0225 Length=0.25644 Units=m
New Line.LINE184_86 Bus1=184_84 Bus2=184_87 phases=3 Linecode=2c_.0225 Length=0.10617 Units=m
New Line.LINE184_87 Bus1=184_85 Bus2=184_88 phases=3 Linecode=2c_.0225 Length=0.19416 Units=m
New Line.LINE184_88 Bus1=184_85 Bus2=184_89 phases=3 Linecode=4c_.2 Length=2.9799 Units=m
New Line.LINE184_89 Bus1=184_86 Bus2=184_90 phases=3 Linecode=2c_.0225 Length=0.28541 Units=m
New Line.LINE184_90 Bus1=184_87 Bus2=184_91 phases=3 Linecode=2c_.0225 Length=0.12963 Units=m
New Line.LINE184_91 Bus1=184_88 Bus2=184_92 phases=3 Linecode=2c_.0225 Length=0.10555 Units=m
New Line.LINE184_92 Bus1=184_89 Bus2=184_93 phases=3 Linecode=4c_.2 Length=0.77943 Units=m
New Line.LINE184_93 Bus1=184_90 Bus2=184_94 phases=3 Linecode=2c_.0225 Length=0.48448 Units=m
New Line.LINE184_94 Bus1=184_91 Bus2=184_95 phases=3 Linecode=2c_.0225 Length=0.083762 Units=m
New Line.LINE184_95 Bus1=184_92 Bus2=184_96 phases=3 Linecode=2c_.0225 Length=0.21728 Units=m
New Line.LINE184_96 Bus1=184_93 Bus2=184_97 phases=3 Linecode=4c_.2 Length=0.90508 Units=m
New Line.LINE184_97 Bus1=184_94 Bus2=184_98 phases=3 Linecode=2c_.0225 Length=3.9562 Units=m
New Line.LINE184_98 Bus1=184_95 Bus2=184_99 phases=3 Linecode=2c_.0225 Length=0.1591 Units=m
New Line.LINE184_99 Bus1=184_96 Bus2=184_100 phases=3 Linecode=2c_.0225 Length=0.13138 Units=m
New Line.LINE184_100 Bus1=184_97 Bus2=184_101 phases=3 Linecode=4c_.2 Length=0.6771 Units=m
New Line.LINE184_101 Bus1=184_98 Bus2=184_102 phases=3 Linecode=2c_.0225 Length=0.19832 Units=m
New Line.LINE184_102 Bus1=184_99 Bus2=184_103 phases=3 Linecode=2c_.0225 Length=0.10445 Units=m
New Line.LINE184_103 Bus1=184_100 Bus2=184_104 phases=3 Linecode=2c_.0225 Length=0.17335 Units=m
New Line.LINE184_104 Bus1=184_101 Bus2=184_105 phases=3 Linecode=4c_.2 Length=0.49024 Units=m
New Line.LINE184_105 Bus1=184_102 Bus2=184_106 phases=3 Linecode=2c_.0225 Length=0.32821 Units=m
New Line.LINE184_106 Bus1=184_103 Bus2=184_107 phases=3 Linecode=2c_.0225 Length=0.081688 Units=m
New Line.LINE184_107 Bus1=184_104 Bus2=184_108 phases=3 Linecode=2c_.0225 Length=0.169 Units=m
New Line.LINE184_108 Bus1=184_105 Bus2=184_109 phases=3 Linecode=4c_.2 Length=3.3005 Units=m
New Line.LINE184_109 Bus1=184_106 Bus2=184_110 phases=3 Linecode=2c_.0225 Length=0.32478 Units=m
New Line.LINE184_110 Bus1=184_107 Bus2=184_111 phases=3 Linecode=2c_.0225 Length=6.7443 Units=m
New Line.LINE184_111 Bus1=184_108 Bus2=184_112 phases=3 Linecode=2c_.0225 Length=7.5183 Units=m
New Line.LINE184_112 Bus1=184_109 Bus2=184_113 phases=3 Linecode=4c_.2 Length=0.24254 Units=m
New Line.LINE184_113 Bus1=184_110 Bus2=184_114 phases=3 Linecode=2c_.0225 Length=0.88266 Units=m
New Line.LINE184_114 Bus1=184_111 Bus2=184_115 phases=3 Linecode=2c_.0225 Length=9.2789 Units=m
New Line.LINE184_115 Bus1=184_112 Bus2=184_116 phases=3 Linecode=2c_.0225 Length=8.1424 Units=m
New Line.LINE184_116 Bus1=184_113 Bus2=184_117 phases=3 Linecode=4c_.2 Length=1.5804 Units=m
New Line.LINE184_117 Bus1=184_114 Bus2=184_118 phases=3 Linecode=2c_.0225 Length=0.73685 Units=m
New Line.LINE184_118 Bus1=184_115 Bus2=184_119 phases=3 Linecode=2c_.0225 Length=2.4122 Units=m
New Line.LINE184_119 Bus1=184_116 Bus2=184_120 phases=3 Linecode=2c_.0225 Length=2.7064 Units=m
New Line.LINE184_120 Bus1=184_117 Bus2=184_121 phases=3 Linecode=4c_.2 Length=0.38273 Units=m
New Line.LINE184_121 Bus1=184_119 Bus2=184_122 phases=3 Linecode=2c_.0225 Length=0.6786 Units=m
New Line.LINE184_122 Bus1=184_120 Bus2=184_123 phases=3 Linecode=2c_.0225 Length=0.69302 Units=m
New Line.LINE184_123 Bus1=184_121 Bus2=184_124 phases=3 Linecode=4c_.2 Length=0.73941 Units=m
New Line.LINE184_124 Bus1=184_122 Bus2=184_125 phases=3 Linecode=2c_.0225 Length=0.09434 Units=m
New Line.LINE184_125 Bus1=184_123 Bus2=184_126 phases=3 Linecode=2c_.0225 Length=0.70054 Units=m
New Line.LINE184_126 Bus1=184_124 Bus2=184_127 phases=3 Linecode=4c_.2 Length=0.24399 Units=m
New Line.LINE184_127 Bus1=184_125 Bus2=184_128 phases=3 Linecode=2c_.0225 Length=0.076531 Units=m
New Line.LINE184_128 Bus1=184_126 Bus2=184_129 phases=3 Linecode=2c_.0225 Length=0.45112 Units=m
New Line.LINE184_129 Bus1=184_127 Bus2=184_130 phases=3 Linecode=4c_.2 Length=0.59852 Units=m
New Line.LINE184_130 Bus1=184_128 Bus2=184_131 phases=3 Linecode=2c_.0225 Length=0.18886 Units=m
New Line.LINE184_131 Bus1=184_129 Bus2=184_132 phases=3 Linecode=2c_.0225 Length=0.32104 Units=m
New Line.LINE184_132 Bus1=184_130 Bus2=184_133 phases=3 Linecode=4c_.2 Length=0.61484 Units=m
New Line.LINE184_133 Bus1=184_131 Bus2=184_134 phases=3 Linecode=2c_.0225 Length=0.27135 Units=m
New Line.LINE184_134 Bus1=184_132 Bus2=184_135 phases=3 Linecode=2c_.0225 Length=0.27987 Units=m
New Line.LINE184_135 Bus1=184_133 Bus2=184_136 phases=3 Linecode=4c_.2 Length=0.6151 Units=m
New Line.LINE184_136 Bus1=184_134 Bus2=184_137 phases=3 Linecode=2c_.0225 Length=0.076061 Units=m
New Line.LINE184_137 Bus1=184_135 Bus2=184_138 phases=3 Linecode=2c_.0225 Length=0.18694 Units=m
New Line.LINE184_138 Bus1=184_136 Bus2=184_139 phases=3 Linecode=4c_.2 Length=0.59765 Units=m
New Line.LINE184_139 Bus1=184_137 Bus2=184_140 phases=3 Linecode=2c_.0225 Length=0.047801 Units=m
New Line.LINE184_140 Bus1=184_138 Bus2=184_141 phases=3 Linecode=2c_.0225 Length=3.0411 Units=m
New Line.LINE184_141 Bus1=184_138 Bus2=184_142 phases=3 Linecode=2c_.007_VIR Length=2.1418 Units=m
New Line.LINE184_142 Bus1=184_139 Bus2=184_143 phases=3 Linecode=4c_.2 Length=0.55175 Units=m
New Line.LINE184_143 Bus1=184_140 Bus2=184_144 phases=3 Linecode=2c_.0225 Length=4.8352 Units=m
New Line.LINE184_144 Bus1=184_141 Bus2=184_145 phases=3 Linecode=2c_.0225 Length=0.39623 Units=m
New Line.LINE184_145 Bus1=184_143 Bus2=184_146 phases=3 Linecode=4c_.2 Length=0.945 Units=m
New Line.LINE184_146 Bus1=184_144 Bus2=184_147 phases=3 Linecode=2c_.0225 Length=0.30047 Units=m
New Line.LINE184_147 Bus1=184_145 Bus2=184_148 phases=3 Linecode=2c_.0225 Length=0.38047 Units=m
New Line.LINE184_148 Bus1=184_146 Bus2=184_149 phases=3 Linecode=4c_.2 Length=0.55138 Units=m
New Line.LINE184_149 Bus1=184_147 Bus2=184_150 phases=3 Linecode=2c_.0225 Length=2.7557 Units=m
New Line.LINE184_150 Bus1=184_148 Bus2=184_151 phases=3 Linecode=2c_.0225 Length=1.0889 Units=m
New Line.LINE184_151 Bus1=184_149 Bus2=184_152 phases=3 Linecode=4c_.2 Length=1.4834 Units=m
New Line.LINE184_152 Bus1=184_150 Bus2=184_153 phases=3 Linecode=2c_.0225 Length=1.4531 Units=m
New Line.LINE184_153 Bus1=184_151 Bus2=184_154 phases=3 Linecode=2c_.0225 Length=1.4803 Units=m
New Line.LINE184_154 Bus1=184_152 Bus2=184_155 phases=3 Linecode=4c_.2 Length=1.4064 Units=m
New Line.LINE184_155 Bus1=184_153 Bus2=184_156 phases=3 Linecode=2c_.0225 Length=0.32361 Units=m
New Line.LINE184_156 Bus1=184_154 Bus2=184_157 phases=3 Linecode=2c_.0225 Length=0.48556 Units=m
New Line.LINE184_157 Bus1=184_155 Bus2=184_158 phases=3 Linecode=4c_.2 Length=0.72901 Units=m
New Line.LINE184_158 Bus1=184_156 Bus2=184_159 phases=3 Linecode=2c_.0225 Length=0.29069 Units=m
New Line.LINE184_159 Bus1=184_157 Bus2=184_160 phases=3 Linecode=2c_.0225 Length=0.77991 Units=m
New Line.LINE184_160 Bus1=184_158 Bus2=184_161 phases=3 Linecode=4c_.2 Length=2.6961 Units=m
New Line.LINE184_161 Bus1=184_159 Bus2=184_162 phases=3 Linecode=2c_.0225 Length=0.14431 Units=m
New Line.LINE184_162 Bus1=184_160 Bus2=184_163 phases=3 Linecode=2c_.0225 Length=0.60953 Units=m
New Line.LINE184_163 Bus1=184_161 Bus2=184_164 phases=3 Linecode=4c_.2 Length=0.42346 Units=m
New Line.LINE184_164 Bus1=184_162 Bus2=184_165 phases=3 Linecode=2c_.0225 Length=0.057707 Units=m
New Line.LINE184_165 Bus1=184_163 Bus2=184_166 phases=3 Linecode=2c_.0225 Length=0.46058 Units=m
New Line.LINE184_166 Bus1=184_164 Bus2=184_167 phases=3 Linecode=4c_.2 Length=0.29427 Units=m
New Line.LINE184_167 Bus1=184_165 Bus2=184_168 phases=3 Linecode=2c_.0225 Length=0.27878 Units=m
New Line.LINE184_168 Bus1=184_166 Bus2=184_169 phases=3 Linecode=2c_.0225 Length=0.1941 Units=m
New Line.LINE184_169 Bus1=184_167 Bus2=184_170 phases=3 Linecode=4c_.2 Length=0.37173 Units=m
New Line.LINE184_170 Bus1=184_168 Bus2=184_171 phases=3 Linecode=2c_.0225 Length=0.51474 Units=m
New Line.LINE184_171 Bus1=184_169 Bus2=184_172 phases=3 Linecode=2c_.0225 Length=0.69088 Units=m
New Line.LINE184_172 Bus1=184_170 Bus2=184_173 phases=3 Linecode=4c_.2 Length=4.3911 Units=m
New Line.LINE184_173 Bus1=184_171 Bus2=184_174 phases=3 Linecode=2c_.0225 Length=1.1048 Units=m
New Line.LINE184_174 Bus1=184_172 Bus2=184_175 phases=3 Linecode=2c_.0225 Length=1.0458 Units=m
New Line.LINE184_175 Bus1=184_173 Bus2=184_176 phases=3 Linecode=4c_.2 Length=0.67179 Units=m
New Line.LINE184_176 Bus1=184_173 Bus2=184_177 phases=3 Linecode=4c_.2 Length=0.93733 Units=m
New Line.LINE184_177 Bus1=184_174 Bus2=184_178 phases=3 Linecode=2c_.0225 Length=0.8414 Units=m
New Line.LINE184_178 Bus1=184_174 Bus2=184_179 phases=3 Linecode=2c_.0225 Length=2.3584 Units=m
New Line.LINE184_179 Bus1=184_175 Bus2=184_180 phases=3 Linecode=2c_.0225 Length=2.342 Units=m
New Line.LINE184_180 Bus1=184_176 Bus2=184_181 phases=3 Linecode=4c_.2 Length=0.18062 Units=m
New Line.LINE184_181 Bus1=184_176 Bus2=184_182 phases=3 Linecode=4c_.2 Length=0.41855 Units=m
New Line.LINE184_182 Bus1=184_177 Bus2=184_183 phases=3 Linecode=4c_.2 Length=3.8803 Units=m
New Line.LINE184_183 Bus1=184_178 Bus2=184_184 phases=3 Linecode=2c_.0225 Length=0.30283 Units=m
New Line.LINE184_184 Bus1=184_181 Bus2=184_185 phases=3 Linecode=4c_.2 Length=0.15498 Units=m
New Line.LINE184_185 Bus1=184_183 Bus2=184_186 phases=3 Linecode=4c_.2 Length=2.6561 Units=m
New Line.LINE184_186 Bus1=184_184 Bus2=184_187 phases=3 Linecode=2c_.0225 Length=0.35293 Units=m
New Line.LINE184_187 Bus1=184_185 Bus2=184_188 phases=3 Linecode=4c_.2 Length=0.78461 Units=m
New Line.LINE184_188 Bus1=184_186 Bus2=184_189 phases=3 Linecode=4c_.06 Length=0.1183 Units=m
New Line.LINE184_189 Bus1=184_186 Bus2=184_190 phases=3 Linecode=4c_.2 Length=3.1027 Units=m
New Line.LINE184_190 Bus1=184_187 Bus2=184_191 phases=3 Linecode=2c_.0225 Length=0.31557 Units=m
New Line.LINE184_191 Bus1=184_188 Bus2=184_192 phases=3 Linecode=4c_.2 Length=0.23854 Units=m
New Line.LINE184_192 Bus1=184_189 Bus2=184_193 phases=3 Linecode=4c_.06 Length=0.68422 Units=m
New Line.LINE184_193 Bus1=184_190 Bus2=184_194 phases=3 Linecode=4c_.2 Length=0.88216 Units=m
New Line.LINE184_194 Bus1=184_190 Bus2=184_195 phases=3 Linecode=4c_.2 Length=1.7876 Units=m
New Line.LINE184_195 Bus1=184_191 Bus2=184_196 phases=3 Linecode=2c_.0225 Length=5.3792 Units=m
New Line.LINE184_196 Bus1=184_192 Bus2=184_197 phases=3 Linecode=4c_.2 Length=0.30468 Units=m
New Line.LINE184_197 Bus1=184_193 Bus2=184_198 phases=3 Linecode=4c_.06 Length=0.25489 Units=m
New Line.LINE184_198 Bus1=184_194 Bus2=184_199 phases=3 Linecode=4c_.2 Length=0.40206 Units=m
New Line.LINE184_199 Bus1=184_195 Bus2=184_200 phases=3 Linecode=4c_.2 Length=7.9327 Units=m
New Line.LINE184_200 Bus1=184_196 Bus2=184_201 phases=3 Linecode=2c_.0225 Length=0.38967 Units=m
...
