Test_Network/condensed/network_18/Feeder_4/LoadsCopyUnq.txt
New Load.LOAD184_1 Phases=1 Bus1=184_83.1 kV=0.23 kW=1 PF=0.95
New Load.LOAD184_2 Phases=1 Bus1=184_118.1 kV=0.23 kW=1 PF=0.95
New Load.LOAD184_3 Phases=1 Bus1=184_179.3 kV=0.23 kW=1 PF=0.95
New Load.LOAD184_4 Phases=1 Bus1=184_180.2 kV=0.23 kW=1 PF=0.95
New Load.LOAD184_5 Phases=1 Bus1=184_215.3 kV=0.23 kW=1 PF=0.95
New Load.LOAD184_6 Phases=1 Bus1=184_278.3 kV=0.23 kW=1 PF=0.95
New Load.LOAD184_7 Phases=1 Bus1=184_309.1 kV=0.23 kW=1 PF=0.95
New Load.LOAD184_8 Phases=1 Bus1=184_353.1 kV=0.23 kW=1 PF=0.95
New Load.LOAD184_9 Phases=1 Bus1=184_425.3 kV=0.23 kW=1 PF=0.95
New Load.LOAD184_10 Phases=1 Bus1=184_467.2 kV=0.23 kW=1 PF=0.95
New Load.LOAD184_11 Phases=1 Bus1=184_495.1 kV=0.23 kW=1 PF=0.95
New Load.LOAD184_12 Phases=1 Bus1=184_497.1 kV=0.23 kW=1 PF=0.95
New Load.LOAD184_13 Phases=1 Bus1=184_547.2 kV=0.23 kW=1 PF=0.95
New Load.LOAD184_14 Phases=1 Bus1=184_591.3 kV=0.23 kW=1 PF=0.95
New Load.LOAD184_15 Phases=1 Bus1=184_617.1 kV=0.23 kW=1 PF=0.95
New Load.LOAD184_16 Phases=1 Bus1=184_624.2 kV=0.23 kW=1 PF=0.95
New Load.LOAD184_17 Phases=1 Bus1=184_721.2 kV=0.23 kW=1 PF=0.95
New Load.LOAD184_18 Phases=1 Bus1=184_731.3 kV=0.23 kW=1 PF=0.95
New Load.LOAD184_19 Phases=1 Bus1=184_749.1 kV=0.23 kW=1 PF=0.95
New Load.LOAD184_20 Phases=1 Bus1=184_845.2 kV=0.23 kW=1 PF=0.95
New Load.LOAD184_21 Phases=1 Bus1=184_894.3 kV=0.23 kW=1 PF=0.95
New Load.LOAD184_22 Phases=1 Bus1=184_912.1 kV=0.23 kW=1 PF=0.95
New Load.LOAD184_23 Phases=1 Bus1=184_936.3 kV=0.23 kW=1 PF=0.95
New Load.LOAD184_24 Phases=1 Bus1=184_942.2 kV=0.23 kW=1 PF=0.95
New Load.LOAD184_25 Phases=1 Bus1=184_979.3 kV=0.23 kW=1 PF=0.95
New Load.LOAD184_26 Phases=1 Bus1=184_994.1 kV=0.23 kW=1 PF=0.95
New Load.LOAD184_27 Phases=1 Bus1=184_1016.2 kV=0.23 kW=1 PF=0.95
New Load.LOAD184_28 Phases=1 Bus1=184_1075.3 kV=0.23 kW=1 PF=0.95
New Load.LOAD184_29 Phases=1 Bus1=184_1083.1 kV=0.23 kW=1 PF=0.95
New Load.LOAD184_30 Phases=1 Bus1=184_1091.3 kV=0.23 kW=1 PF=0.95
New Load.LOAD184_31 Phases=1 Bus1=184_1112.2 kV=0.23 kW=1 PF=0.95
New Load.LOAD184_32 Phases=1 Bus1=184_1116.2 kV=0.23 kW=1 PF=0.95
New Load.LOAD184_33 Phases=1 Bus1=184_1157.3 kV=0.23 kW=1 PF=0.95
New Load.LOAD184_34 Phases=1 Bus1=184_1162.2 kV=0.23 kW=1 PF=0.95
